data_C48H12N6O6S6_2023-05-30_09:17:22
#******************************************
#
# CIF file created by Zeo++
# Zeo++ is an open source package to
# analyze microporous materials
#
#*******************************************

_cell_length_a		35.2252   
_cell_length_b		35.5238   
_cell_length_c		7   
_cell_angle_alpha		90   
_cell_angle_beta		90   
_cell_angle_gamma		119.633   

_symmetry_space_group_name_H-M		'P1'
_symmetry_Int_Tables_number		1
_symmetry_cell_setting		Monoclinic

loop_
_symmetry_equiv_pos_as_xyz
'+x,+y,+z'

loop_
_atom_site_label
_atom_site_type_symbol
_atom_site_fract_x
_atom_site_fract_y
_atom_site_fract_z
1	C	0.377312	0.675831	0.999995
2	O	0.415873	0.68257	0.999991
3	C	0.342548	0.630798	0.999998
4	C	0.349399	0.597605	0
5	N	0.392563	0.605367	0
6	C	0.297954	0.622805	3e-06
7	O	0.266707	0.583991	5e-06
8	C	0.287154	0.657438	6e-06
9	C	0.246119	0.64908	5e-06
10	N	0.212293	0.604919	0
11	C	0.323597	0.702111	4e-06
12	O	0.315008	0.73206	7e-06
13	C	0.368904	0.712111	0.999999
14	C	0.401027	0.752866	0.999998
15	N	0.394466	0.789043	0
16	H	0.322781	0.565291	1e-06
17	H	0.2374	0.673887	8e-06
18	H	0.433603	0.758685	0.999997
19	C	0.622688	0.324169	0.999995
20	O	0.584127	0.31743	0.999991
21	C	0.657452	0.369202	0.999998
22	C	0.650601	0.402395	0
23	N	0.607437	0.394633	0
24	C	0.702046	0.377195	3e-06
25	O	0.733293	0.416009	5e-06
26	C	0.712846	0.342562	6e-06
27	C	0.753881	0.35092	5e-06
28	N	0.787707	0.395081	0
29	C	0.676403	0.297889	4e-06
30	O	0.684992	0.26794	7e-06
31	C	0.631096	0.287889	0.999999
32	C	0.598973	0.247134	0.999998
33	N	0.605534	0.210957	0
34	H	0.677219	0.434709	1e-06
35	H	0.7626	0.326113	8e-06
36	H	0.566397	0.241315	0.999997
37	C	0.58102	0.420542	0
38	C	0.561208	0.439972	0.005025
39	C	0.53765	0.463075	0.011019
40	C	0.524401	0.476069	0.851233
41	C	0.501607	0.498424	0.903352
42	C	0.498393	0.501576	0.096648
43	C	0.475599	0.523931	0.148767
44	C	0.46235	0.536925	0.988981
45	C	0.438792	0.560028	0.994975
46	C	0.41898	0.579458	0
47	S	0.476704	0.522847	0.778388
48	S	0.523296	0.477153	0.221612
49	H	0.53043	0.470156	0.705574
50	H	0.46957	0.529844	0.294427
51	C	0.578785	0.158693	0
52	C	0.559408	0.119833	0.005025
53	C	0.536368	0.073626	0.011019
54	C	0.52341	0.047639	0.851233
55	C	0.501117	0.002929	0.903352
56	C	0.497973	0.996624	0.096648
57	C	0.475679	0.951914	0.148767
58	C	0.462721	0.925927	0.988981
59	C	0.439681	0.879721	0.994975
60	C	0.420304	0.84086	0
61	S	0.47676	0.954082	0.778388
62	S	0.522329	0.045471	0.221612
63	H	0.529307	0.059464	0.705574
64	H	0.469782	0.940089	0.294427
65	C	0.839516	0.420094	0
66	C	0.878706	0.439524	0.005025
67	C	0.925303	0.462627	0.011019
68	C	0.95151	0.475621	0.851233
69	C	0.996597	0.497976	0.903352
70	C	0.002956	0.501129	0.096648
71	C	0.048044	0.523483	0.148767
72	C	0.074251	0.536477	0.988981
73	C	0.120848	0.55958	0.994975
74	C	0.160037	0.57901	0
75	S	0.045858	0.5224	0.778388
76	S	0.953696	0.476705	0.221612
77	H	0.939584	0.469708	0.705574
78	H	0.059969	0.529396	0.294427
