data_C42H15N9O6_2023-05-11_02:57:11
#******************************************
#
# CIF file created by Zeo++
# Zeo++ is an open source package to
# analyze microporous materials
#
#*******************************************

_cell_length_a		30.8573   
_cell_length_b		31.1561   
_cell_length_c		7   
_cell_angle_alpha		90   
_cell_angle_beta		90   
_cell_angle_gamma		119.581   

_symmetry_space_group_name_H-M		'P1'
_symmetry_Int_Tables_number		1
_symmetry_cell_setting		Monoclinic

loop_
_symmetry_equiv_pos_as_xyz
'+x,+y,+z'

loop_
_atom_site_label
_atom_site_type_symbol
_atom_site_fract_x
_atom_site_fract_y
_atom_site_fract_z
1	C	0.383526	0.67711	0.999995
2	O	0.427537	0.68479	0.999991
3	C	0.343895	0.625791	0.999998
4	C	0.351755	0.587963	0
5	N	0.401019	0.596809	0
6	C	0.292998	0.616681	3e-06
7	O	0.257374	0.572449	5e-06
8	C	0.280628	0.656149	6e-06
9	C	0.233795	0.646625	5e-06
10	N	0.195233	0.596299	0
11	C	0.322177	0.707059	4e-06
12	O	0.312336	0.74119	7e-06
13	C	0.373885	0.718456	0.999999
14	C	0.410507	0.7649	0.999998
15	N	0.402973	0.806127	0
16	H	0.321407	0.551138	1e-06
17	H	0.223812	0.674895	8e-06
18	H	0.447686	0.771532	0.999997
19	C	0.616474	0.32289	0.999995
20	O	0.572463	0.31521	0.999991
21	C	0.656105	0.374209	0.999998
22	C	0.648245	0.412037	0
23	N	0.598981	0.403191	0
24	C	0.707002	0.383319	3e-06
25	O	0.742626	0.427551	5e-06
26	C	0.719372	0.343851	6e-06
27	C	0.766205	0.353375	5e-06
28	N	0.804767	0.403701	0
29	C	0.677823	0.292941	4e-06
30	O	0.687664	0.25881	7e-06
31	C	0.626115	0.281544	0.999999
32	C	0.589493	0.2351	0.999998
33	N	0.597027	0.193873	0
34	H	0.678593	0.448862	1e-06
35	H	0.776188	0.325105	8e-06
36	H	0.552314	0.228468	0.999997
37	C	0.568793	0.432717	0
38	C	0.547056	0.453977	0.048151
39	C	0.521263	0.479204	0.105043
40	C	0.512889	0.487393	0.291173
41	N	0.486997	0.512717	0.287342
42	C	0.478801	0.520733	0.101469
43	C	0.453008	0.545961	0.046486
44	C	0.431207	0.567283	0
45	C	0.499777	0.500218	0.984892
46	H	0.522975	0.477529	0.425552
47	H	0.475632	0.523834	0.403443
48	H	0.499626	0.500366	0.830238
49	C	0.566553	0.134312	0
50	C	0.545359	0.091792	0.048151
51	C	0.520211	0.041338	0.105043
52	C	0.512047	0.024959	0.291173
53	N	0.486802	0.974311	0.287342
54	C	0.478811	0.958279	0.101469
55	C	0.453662	0.907823	0.046486
56	C	0.432407	0.865179	0
57	C	0.499262	0.999309	0.984892
58	H	0.521881	0.044688	0.425552
59	H	0.475721	0.952078	0.403443
60	H	0.499115	0.999014	0.830238
61	C	0.86388	0.432206	0
62	C	0.90681	0.453466	0.048151
63	C	0.957752	0.478694	0.105043
64	C	0.974289	0.486883	0.291173
65	N	0.025426	0.512207	0.287342
66	C	0.041613	0.520223	0.101469
67	C	0.092556	0.545451	0.046486
68	C	0.135612	0.566773	0
69	C	0.000187	0.499708	0.984892
70	H	0.95437	0.477018	0.425552
71	H	0.047873	0.523323	0.403443
72	H	0.000484	0.499855	0.830238
