data_C36H6N6O6_2023-05-10_21:09:46
#******************************************
#
# CIF file created by Zeo++
# Zeo++ is an open source package to
# analyze microporous materials
#
#*******************************************

_cell_length_a		29.7959   
_cell_length_b		30.0946   
_cell_length_c		7   
_cell_angle_alpha		90   
_cell_angle_beta		90   
_cell_angle_gamma		119.567   

_symmetry_space_group_name_H-M		'P1'
_symmetry_Int_Tables_number		1
_symmetry_cell_setting		Monoclinic

loop_
_symmetry_equiv_pos_as_xyz
'+x,+y,+z'

loop_
_atom_site_label
_atom_site_type_symbol
_atom_site_fract_x
_atom_site_fract_y
_atom_site_fract_z
1	C	0.385311	0.677477	0.999995
2	O	0.430888	0.685426	0.999991
3	C	0.344284	0.624355	0.999998
4	C	0.352435	0.585199	0
5	N	0.403452	0.594356	0
6	C	0.291577	0.614926	3e-06
7	O	0.254697	0.56914	5e-06
8	C	0.278754	0.65578	6e-06
9	C	0.230255	0.645921	5e-06
10	N	0.190335	0.593827	0
11	C	0.321766	0.708478	4e-06
12	O	0.311565	0.743807	7e-06
13	C	0.375314	0.720274	0.999999
14	C	0.413225	0.76835	0.999998
15	N	0.405411	0.811025	0
16	H	0.321018	0.547081	1e-06
17	H	0.219908	0.675184	8e-06
18	H	0.451727	0.775214	0.999997
19	C	0.614689	0.322523	0.999995
20	O	0.569112	0.314574	0.999991
21	C	0.655716	0.375645	0.999998
22	C	0.647565	0.414801	0
23	N	0.596548	0.405644	0
24	C	0.708423	0.385074	3e-06
25	O	0.745303	0.43086	5e-06
26	C	0.721246	0.34422	6e-06
27	C	0.769745	0.354079	5e-06
28	N	0.809665	0.406173	0
29	C	0.678234	0.291522	4e-06
30	O	0.688435	0.256193	7e-06
31	C	0.624686	0.279726	0.999999
32	C	0.586775	0.23165	0.999998
33	N	0.594589	0.188975	0
34	H	0.678982	0.452919	1e-06
35	H	0.780092	0.324816	8e-06
36	H	0.548273	0.224786	0.999997
37	C	0.565275	0.436207	0
38	C	0.541822	0.459129	0.999999
39	C	0.511728	0.48854	0.999998
40	C	0.488273	0.511462	0.999998
41	C	0.458179	0.540872	0.999999
42	C	0.434725	0.563793	0
43	C	0.563048	0.127323	0
44	C	0.5402	0.08148	0.999999
45	C	0.510884	0.022659	0.999998
46	C	0.488036	0.976814	0.999998
47	C	0.458721	0.917993	0.999999
48	C	0.435875	0.87215	0
49	C	0.870875	0.435679	0
50	C	0.917176	0.458599	0.999999
51	C	0.976586	0.48801	0.999998
52	C	0.022888	0.510932	0.999998
53	C	0.082298	0.540343	0.999999
54	C	0.128599	0.563265	0
