data_C42H6N12O6_2023-05-30_17:17:53
#******************************************
#
# CIF file created by Zeo++
# Zeo++ is an open source package to
# analyze microporous materials
#
#*******************************************

_cell_length_a		29.6779   
_cell_length_b		29.9767   
_cell_length_c		7   
_cell_angle_alpha		90   
_cell_angle_beta		90   
_cell_angle_gamma		119.565   

_symmetry_space_group_name_H-M		'P1'
_symmetry_Int_Tables_number		1
_symmetry_cell_setting		Monoclinic

loop_
_symmetry_equiv_pos_as_xyz
'+x,+y,+z'

loop_
_atom_site_label
_atom_site_type_symbol
_atom_site_fract_x
_atom_site_fract_y
_atom_site_fract_z
1	C	0.385517	0.677519	0.999995
2	O	0.431275	0.6855	0.999991
3	C	0.344329	0.624189	0.999998
4	C	0.352514	0.58488	0
5	N	0.403733	0.594072	0
6	C	0.291413	0.614723	3e-06
7	O	0.254388	0.568758	5e-06
8	C	0.278537	0.655737	6e-06
9	C	0.229846	0.64584	5e-06
10	N	0.189769	0.593542	0
11	C	0.321719	0.708642	4e-06
12	O	0.311476	0.744109	7e-06
13	C	0.375479	0.720484	0.999999
14	C	0.413539	0.768748	0.999998
15	N	0.405692	0.811591	0
16	H	0.320973	0.546613	1e-06
17	H	0.219457	0.675217	8e-06
18	H	0.452194	0.77564	0.999997
19	C	0.614483	0.322481	0.999995
20	O	0.568725	0.3145	0.999991
21	C	0.655671	0.375811	0.999998
22	C	0.647486	0.41512	0
23	N	0.596267	0.405928	0
24	C	0.708587	0.385277	3e-06
25	O	0.745612	0.431242	5e-06
26	C	0.721463	0.344263	6e-06
27	C	0.770154	0.35416	5e-06
28	N	0.810231	0.406458	0
29	C	0.678281	0.291358	4e-06
30	O	0.688524	0.255891	7e-06
31	C	0.624521	0.279516	0.999999
32	C	0.586461	0.231252	0.999998
33	N	0.594308	0.188409	0
34	H	0.679027	0.453387	1e-06
35	H	0.780543	0.324783	8e-06
36	H	0.547806	0.22436	0.999997
37	C	0.564869	0.43661	0
38	C	0.552915	0.448291	0.14769
39	C	0.537533	0.463322	0.336958
40	C	0.525416	0.475163	0.484119
41	N	0.512324	0.487956	0.650901
42	N	0.487675	0.512044	0.650901
43	C	0.474584	0.524837	0.484119
44	C	0.462466	0.536678	0.336958
45	C	0.447085	0.551709	0.14769
46	C	0.435131	0.56339	0
47	C	0.562643	0.126516	0
48	C	0.551	0.103154	0.14769
49	C	0.536018	0.073092	0.336958
50	C	0.524215	0.049409	0.484119
51	N	0.511464	0.023823	0.650901
52	N	0.487454	0.975648	0.650901
53	C	0.474703	0.950062	0.484119
54	C	0.4629	0.926379	0.336958
55	C	0.447918	0.896317	0.14769
56	C	0.436275	0.872955	0
57	C	0.871683	0.43608	0
58	C	0.895279	0.447761	0.14769
59	C	0.925643	0.462792	0.336958
60	C	0.949564	0.474633	0.484119
61	N	0.975406	0.487426	0.650901
62	N	0.024066	0.511514	0.650901
63	C	0.049908	0.524306	0.484119
64	C	0.073828	0.536148	0.336958
65	C	0.104192	0.551179	0.14769
66	C	0.127789	0.56286	0
