data_C60H24N6O6_2023-05-10_21:28:50
#******************************************
#
# CIF file created by Zeo++
# Zeo++ is an open source package to
# analyze microporous materials
#
#*******************************************

_cell_length_a		32.9994   
_cell_length_b		33.2981   
_cell_length_c		7   
_cell_angle_alpha		90   
_cell_angle_beta		90   
_cell_angle_gamma		119.608   

_symmetry_space_group_name_H-M		'P1'
_symmetry_Int_Tables_number		1
_symmetry_cell_setting		Monoclinic

loop_
_symmetry_equiv_pos_as_xyz
'+x,+y,+z'

loop_
_atom_site_label
_atom_site_type_symbol
_atom_site_fract_x
_atom_site_fract_y
_atom_site_fract_z
1	C	0.380274	0.676441	0.999995
2	O	0.421432	0.683629	0.999991
3	C	0.343188	0.62841	0.999998
4	C	0.350519	0.593006	0
5	N	0.39659	0.601285	0
6	C	0.295591	0.619884	3e-06
7	O	0.262257	0.578486	5e-06
8	C	0.284044	0.656823	6e-06
9	C	0.240246	0.647909	5e-06
10	N	0.204162	0.600808	0
11	C	0.322921	0.704471	4e-06
12	O	0.313738	0.736414	7e-06
13	C	0.371279	0.715137	0.999999
14	C	0.405547	0.758605	0.999998
15	N	0.398524	0.797191	0
16	H	0.322123	0.558541	1e-06
17	H	0.230926	0.674368	8e-06
18	H	0.440317	0.764812	0.999997
19	C	0.619726	0.323559	0.999995
20	O	0.578568	0.316371	0.999991
21	C	0.656812	0.37159	0.999998
22	C	0.649481	0.406994	0
23	N	0.60341	0.398715	0
24	C	0.704409	0.380116	3e-06
25	O	0.737743	0.421514	5e-06
26	C	0.715956	0.343177	6e-06
27	C	0.759754	0.352091	5e-06
28	N	0.795838	0.399192	0
29	C	0.677079	0.295529	4e-06
30	O	0.686262	0.263586	7e-06
31	C	0.628721	0.284863	0.999999
32	C	0.594453	0.241395	0.999998
33	N	0.601476	0.202809	0
34	H	0.677877	0.441459	1e-06
35	H	0.769074	0.325632	8e-06
36	H	0.559683	0.235188	0.999997
37	C	0.424803	0.573652	0
38	C	0.445191	0.553683	0.95367
39	C	0.469542	0.529833	0.89699
40	C	0.474303	0.525169	0.700843
41	C	0.497429	0.502518	0.636157
42	C	0.515907	0.48442	0.767447
43	C	0.511856	0.488387	0.966999
44	C	0.530459	0.470167	0.103012
45	C	0.55481	0.446317	0.046332
46	C	0.575197	0.426348	0
47	C	0.525697	0.474831	0.299159
48	C	0.502571	0.497482	0.363845
49	C	0.484093	0.51558	0.232555
50	C	0.488144	0.511613	0.033004
51	H	0.459963	0.539215	0.597606
52	H	0.501144	0.498879	0.483818
53	H	0.533806	0.466888	0.711244
54	H	0.540037	0.460785	0.402397
55	H	0.498856	0.501121	0.516185
56	H	0.466194	0.533112	0.288759
57	C	0.426077	0.852458	0
58	C	0.445987	0.892395	0.95367
59	C	0.469768	0.940096	0.89699
60	C	0.474418	0.949423	0.700843
61	C	0.497003	0.994726	0.636157
62	C	0.515048	0.030922	0.767447
63	C	0.511092	0.022987	0.966999
64	C	0.529259	0.059427	0.103012
65	C	0.55304	0.107128	0.046332
66	C	0.57295	0.147065	0
67	C	0.524609	0.0501	0.299159
68	C	0.502025	0.004798	0.363845
69	C	0.483979	0.968601	0.232555
70	C	0.487935	0.976536	0.033004
71	H	0.460414	0.921332	0.597606
72	H	0.500632	0.002004	0.483818
73	H	0.532529	0.065985	0.711244
74	H	0.538614	0.078191	0.402397
75	H	0.498396	0.99752	0.516185
76	H	0.466499	0.933539	0.288759
77	C	0.148395	0.573174	0
78	C	0.108098	0.553206	0.95367
79	C	0.059966	0.529355	0.89699
80	C	0.050555	0.524692	0.700843
81	C	0.004844	0.502041	0.636157
82	C	0.96832	0.483942	0.767447
83	C	0.976327	0.48791	0.966999
84	C	0.939558	0.46969	0.103012
85	C	0.891426	0.445839	0.046332
86	C	0.851129	0.425871	0
87	C	0.948969	0.474353	0.299159
88	C	0.99468	0.497004	0.363845
89	C	0.031204	0.515103	0.232555
90	C	0.023197	0.511135	0.033004
91	H	0.078899	0.538737	0.597606
92	H	0.9975	0.498402	0.483818
93	H	0.932941	0.466411	0.711244
94	H	0.920625	0.460308	0.402397
95	H	0.002024	0.500643	0.516185
96	H	0.066583	0.532634	0.288759
