data_C66H30N18O6_2023-05-10_21:52:24
#******************************************
#
# CIF file created by Zeo++
# Zeo++ is an open source package to
# analyze microporous materials
#
#*******************************************

_cell_length_a		31.0913   
_cell_length_b		31.39   
_cell_length_c		7   
_cell_angle_alpha		90   
_cell_angle_beta		90   
_cell_angle_gamma		119.584   

_symmetry_space_group_name_H-M		'P1'
_symmetry_Int_Tables_number		1
_symmetry_cell_setting		Monoclinic

loop_
_symmetry_equiv_pos_as_xyz
'+x,+y,+z'

loop_
_atom_site_label
_atom_site_type_symbol
_atom_site_fract_x
_atom_site_fract_y
_atom_site_fract_z
1	C	0.383149	0.677033	0.999995
2	O	0.426829	0.684655	0.999991
3	C	0.343813	0.626094	0.999998
4	C	0.351611	0.588547	0
5	N	0.400506	0.597328	0
6	C	0.293299	0.617052	3e-06
7	O	0.25794	0.573148	5e-06
8	C	0.281024	0.656227	6e-06
9	C	0.234543	0.646774	5e-06
10	N	0.196268	0.596821	0
11	C	0.322263	0.706759	4e-06
12	O	0.312499	0.740636	7e-06
13	C	0.373583	0.718071	0.999999
14	C	0.409932	0.764171	0.999998
15	N	0.402458	0.805092	0
16	H	0.32149	0.551996	1e-06
17	H	0.224637	0.674834	8e-06
18	H	0.446832	0.770753	0.999997
19	C	0.616851	0.322967	0.999995
20	O	0.573171	0.315345	0.999991
21	C	0.656187	0.373906	0.999998
22	C	0.648389	0.411453	0
23	N	0.599494	0.402672	0
24	C	0.706701	0.382948	3e-06
25	O	0.74206	0.426852	5e-06
26	C	0.718976	0.343773	6e-06
27	C	0.765457	0.353226	5e-06
28	N	0.803732	0.403179	0
29	C	0.677737	0.293241	4e-06
30	O	0.687501	0.259364	7e-06
31	C	0.626417	0.281929	0.999999
32	C	0.590068	0.235829	0.999998
33	N	0.597542	0.194908	0
34	H	0.67851	0.448004	1e-06
35	H	0.775363	0.325166	8e-06
36	H	0.553168	0.229247	0.999997
37	C	0.569535	0.431979	0
38	C	0.603214	0.464581	0.085131
39	C	0.643022	0.50351	0.186644
40	C	0.63954	0.537786	0.300772
41	C	0.597661	0.544699	0.346157
42	C	0.587467	0.553994	0.529938
43	N	0.548815	0.561078	0.571862
44	C	0.519837	0.558257	0.421253
45	C	0.478517	0.565801	0.473168
46	C	0.442557	0.57032	0.372081
47	C	0.436309	0.568968	0.169803
48	C	0.430465	0.568021	0
49	C	0.411954	0.577072	0.505041
50	C	0.429634	0.576828	0.68472
51	N	0.469672	0.570244	0.663998
52	C	0.529989	0.54858	0.238041
53	N	0.568919	0.541818	0.196604
54	N	0.686588	0.568532	0.369338
55	C	0.718775	0.553749	0.304965
56	C	0.692639	0.513343	0.190598
57	H	0.609956	0.555633	0.651116
58	H	0.38047	0.581749	0.47289
59	H	0.417339	0.580861	0.82472
60	H	0.490878	0.568651	0.77058
61	H	0.507322	0.545546	0.115966
62	H	0.696304	0.598434	0.451534
63	H	0.757461	0.573468	0.344385
64	H	0.707693	0.493266	0.117127
65	C	0.567294	0.135789	0
66	C	0.534234	0.136679	0.085131
67	C	0.494762	0.13734	0.186644
68	C	0.460329	0.099916	0.300772
69	C	0.453728	0.051752	0.346157
70	C	0.444467	0.032479	0.529938
71	N	0.437667	0.987329	0.571862
72	C	0.440745	0.961543	0.421253
73	C	0.433505	0.913305	0.473168
74	C	0.429262	0.873353	0.372081
75	C	0.430673	0.868531	0.169803
76	C	0.431674	0.863705	0
77	C	0.422728	0.836472	0.505041
78	C	0.422826	0.854153	0.68472
79	N	0.429111	0.900174	0.663998
80	C	0.45039	0.981153	0.238041
81	N	0.456864	0.026258	0.196604
82	N	0.429024	0.115834	0.369338
83	C	0.443618	0.162242	0.304965
84	C	0.484462	0.176532	0.190598
85	H	0.442632	0.053037	0.651116
86	H	0.418288	0.800778	0.47289
87	H	0.418874	0.838026	0.82472
88	H	0.430536	0.922671	0.77058
89	H	0.45363	0.961804	0.115966
90	H	0.398879	0.095764	0.451534
91	H	0.42347	0.180847	0.344385
92	H	0.504522	0.21129	0.117127
93	C	0.862402	0.431472	0
94	C	0.861783	0.397981	0.085131
95	C	0.861448	0.35839	0.186644
96	C	0.899363	0.361539	0.300772
97	C	0.947843	0.40279	0.346157
98	C	0.967297	0.412767	0.529938
99	N	0.012749	0.450834	0.571862
100	C	0.038649	0.479441	0.421253
101	C	0.087209	0.520135	0.473168
102	C	0.127413	0.555567	0.372081
103	C	0.13225	0.561742	0.169803
104	C	0.137093	0.567515	0
105	C	0.164549	0.585697	0.505041
106	C	0.146771	0.56826	0.68472
107	N	0.100448	0.528823	0.663998
108	C	0.018852	0.469508	0.238041
109	N	0.973448	0.431164	0.196604
110	N	0.883619	0.314875	0.369338
111	C	0.836838	0.28325	0.304965
112	C	0.82213	0.309367	0.190598
113	H	0.946644	0.390571	0.651116
114	H	0.200473	0.616714	0.47289
115	H	0.163019	0.580354	0.82472
116	H	0.077817	0.507918	0.77058
117	H	0.03828	0.491891	0.115966
118	H	0.904049	0.305043	0.451534
119	H	0.8183	0.244927	0.344385
120	H	0.787016	0.294685	0.117127
