data_C54H6N6O6_2023-05-30_15:42:19
#******************************************
#
# CIF file created by Zeo++
# Zeo++ is an open source package to
# analyze microporous materials
#
#*******************************************

_cell_length_a		44.0325   
_cell_length_b		44.3311   
_cell_length_c		7   
_cell_angle_alpha		90   
_cell_angle_beta		90   
_cell_angle_gamma		119.706   

_symmetry_space_group_name_H-M		'P1'
_symmetry_Int_Tables_number		1
_symmetry_cell_setting		Monoclinic

loop_
_symmetry_equiv_pos_as_xyz
'+x,+y,+z'

loop_
_atom_site_label
_atom_site_type_symbol
_atom_site_fract_x
_atom_site_fract_y
_atom_site_fract_z
1	C	0.368527	0.674016	0.999995
2	O	0.399382	0.679419	0.999991
3	C	0.340663	0.637903	0.999998
4	C	0.346104	0.611285	0
5	N	0.380643	0.61751	0
6	C	0.304979	0.631493	3e-06
7	O	0.279936	0.600368	5e-06
8	C	0.29638	0.659266	6e-06
9	C	0.263543	0.652564	5e-06
10	N	0.23643	0.617151	0
11	C	0.325587	0.69509	4e-06
12	O	0.318751	0.719107	7e-06
13	C	0.361843	0.703109	0.999999
14	C	0.387589	0.735791	0.999998
15	N	0.382383	0.764802	0
16	H	0.324772	0.585372	1e-06
17	H	0.256597	0.672457	8e-06
18	H	0.413656	0.740457	0.999997
19	C	0.631473	0.325984	0.999995
20	O	0.600618	0.320581	0.999991
21	C	0.659337	0.362097	0.999998
22	C	0.653896	0.388715	0
23	N	0.619357	0.38249	0
24	C	0.695021	0.368507	3e-06
25	O	0.720064	0.399632	5e-06
26	C	0.70362	0.340734	6e-06
27	C	0.736457	0.347436	5e-06
28	N	0.76357	0.382849	0
29	C	0.674413	0.30491	4e-06
30	O	0.681249	0.280893	7e-06
31	C	0.638157	0.296891	0.999999
32	C	0.612411	0.264209	0.999998
33	N	0.617617	0.235198	0
34	H	0.675228	0.414628	1e-06
35	H	0.743403	0.327543	8e-06
36	H	0.586344	0.259543	0.999997
37	C	0.401746	0.596733	0
38	C	0.417573	0.581151	0
39	C	0.437881	0.561158	1e-06
40	C	0.453708	0.545575	1e-06
41	C	0.474018	0.52558	1e-06
42	C	0.489845	0.509997	1e-06
43	C	0.510154	0.490002	1e-06
44	C	0.525982	0.47442	0
45	C	0.546291	0.454424	0
46	C	0.562119	0.438842	0
47	C	0.582427	0.418849	0
48	C	0.598254	0.403267	0
49	C	0.403114	0.806354	0
50	C	0.418662	0.837518	0
51	C	0.438612	0.877505	1e-06
52	C	0.45416	0.90867	1e-06
53	C	0.474112	0.94866	1e-06
54	C	0.489661	0.979826	1e-06
55	C	0.509612	0.019816	1e-06
56	C	0.525161	0.050981	0
57	C	0.545112	0.090971	0
58	C	0.56066	0.122136	0
59	C	0.58061	0.162123	0
60	C	0.596158	0.193287	0
61	C	0.194596	0.596374	0
62	C	0.163222	0.580792	0
63	C	0.122964	0.560799	1e-06
64	C	0.091588	0.545216	1e-06
65	C	0.051328	0.525221	1e-06
66	C	0.019951	0.509639	1e-06
67	C	0.979691	0.489644	1e-06
68	C	0.948314	0.474061	0
69	C	0.908054	0.454066	0
70	C	0.876678	0.438483	0
71	C	0.83642	0.41849	0
72	C	0.805046	0.402908	0
