data_C54H9I6N9O6S6_2023-05-10_20:53:48
#******************************************
#
# CIF file created by Zeo++
# Zeo++ is an open source package to
# analyze microporous materials
#
#*******************************************

_cell_length_a		40.0675   
_cell_length_b		40.3661   
_cell_length_c		7   
_cell_angle_alpha		90   
_cell_angle_beta		90   
_cell_angle_gamma		119.677   

_symmetry_space_group_name_H-M		'P1'
_symmetry_Int_Tables_number		1
_symmetry_cell_setting		Monoclinic

loop_
_symmetry_equiv_pos_as_xyz
'+x,+y,+z'

loop_
_atom_site_label
_atom_site_type_symbol
_atom_site_fract_x
_atom_site_fract_y
_atom_site_fract_z
1	C	0.372005	0.674735	0.999995
2	O	0.40591	0.680668	0.999991
3	C	0.341406	0.635087	0.999998
4	C	0.347403	0.605863	0
5	N	0.385357	0.612697	0
6	C	0.302196	0.62805	3e-06
7	O	0.274694	0.593877	5e-06
8	C	0.292728	0.658541	6e-06
9	C	0.256646	0.651183	5e-06
10	N	0.226873	0.612302	0
11	C	0.324802	0.697873	4e-06
12	O	0.317274	0.724241	7e-06
13	C	0.364641	0.706677	0.999999
14	C	0.392914	0.742559	0.999998
15	N	0.387174	0.77441	0
16	H	0.323976	0.577413	1e-06
17	H	0.249	0.673023	8e-06
18	H	0.421557	0.747682	0.999997
19	C	0.627995	0.325265	0.999995
20	O	0.59409	0.319332	0.999991
21	C	0.658594	0.364913	0.999998
22	C	0.652597	0.394137	0
23	N	0.614643	0.387303	0
24	C	0.697804	0.37195	3e-06
25	O	0.725306	0.406123	5e-06
26	C	0.707272	0.341459	6e-06
27	C	0.743354	0.348817	5e-06
28	N	0.773127	0.387698	0
29	C	0.675198	0.302127	4e-06
30	O	0.682726	0.275759	7e-06
31	C	0.635359	0.293323	0.999999
32	C	0.607086	0.257441	0.999998
33	N	0.612826	0.22559	0
34	H	0.676024	0.422587	1e-06
35	H	0.751	0.326977	8e-06
36	H	0.578443	0.252318	0.999997
37	C	0.591439	0.410114	0
38	C	0.570982	0.422947	0.040209
39	C	0.544756	0.439431	0.091724
40	C	0.52436	0.452366	0.131553
41	C	0.500325	0.467869	0.178203
42	C	0.493429	0.493185	0.076043
43	S	0.512822	0.513233	0.852984
44	I	0.567597	0.569092	0.957874
45	C	0.467017	0.499729	0.182708
46	C	0.451285	0.52354	0.13362
47	C	0.438216	0.543705	0.092731
48	C	0.421543	0.569644	0.040586
49	C	0.408561	0.589886	0
50	C	0.459275	0.478697	0.3482
51	S	0.430263	0.47249	0.54371
52	I	0.472905	0.526635	0.72117
53	N	0.479179	0.459257	0.343372
54	H	0.478407	0.44139	0.446641
55	C	0.58927	0.179575	0
56	C	0.576516	0.146586	0.040209
57	C	0.560133	0.104261	0.091724
58	C	0.547276	0.071229	0.131553
59	C	0.531864	0.032048	0.178203
60	C	0.506486	7.3e-05	0.076043
61	S	0.486229	0.999343	0.852984
62	I	0.429779	0.99804	0.957874
63	C	0.500086	0.96744	0.182708
64	C	0.476277	0.928217	0.13362
65	C	0.456112	0.895253	0.092731
66	C	0.430173	0.852986	0.040586
67	C	0.40993	0.820031	0
68	C	0.521257	0.980675	0.3482
69	S	0.527678	0.958137	0.54371
70	I	0.473029	0.946533	0.72117
71	N	0.540649	0.019681	0.343372
72	H	0.558596	0.036668	0.446641
73	C	0.818695	0.40972	0
74	C	0.851905	0.429877	0.040209
75	C	0.894515	0.455717	0.091724
76	C	0.927768	0.475813	0.131553
77	C	0.967214	0.499492	0.178203
78	C	0.999488	0.506151	0.076043
79	S	0.000353	0.486834	0.852984
80	I	0.002028	0.432277	0.957874
81	C	0.0323	0.53224	0.182708
82	C	0.071841	0.547652	0.13362
83	C	0.105075	0.560451	0.092731
84	C	0.147688	0.576779	0.040586
85	C	0.180912	0.589492	0
86	C	0.018872	0.540037	0.3482
87	S	0.041462	0.568782	0.54371
88	I	0.05347	0.526241	0.72117
89	N	0.979576	0.520471	0.343372
90	H	0.962401	0.52135	0.446641
