data_C30H6N12O6_2023-05-11_03:26:19
#******************************************
#
# CIF file created by Zeo++
# Zeo++ is an open source package to
# analyze microporous materials
#
#*******************************************

_cell_length_a		24.8423   
_cell_length_b		25.1412   
_cell_length_c		7   
_cell_angle_alpha		90   
_cell_angle_beta		90   
_cell_angle_gamma		119.481   

_symmetry_space_group_name_H-M		'P1'
_symmetry_Int_Tables_number		1
_symmetry_cell_setting		Monoclinic

loop_
_symmetry_equiv_pos_as_xyz
'+x,+y,+z'

loop_
_atom_site_label
_atom_site_type_symbol
_atom_site_fract_x
_atom_site_fract_y
_atom_site_fract_z
1	C	0.395653	0.679596	0.999995
2	O	0.450301	0.689104	0.999991
3	C	0.346555	0.616061	0.999998
4	C	0.356413	0.56923	0
5	N	0.417584	0.580182	0
6	C	0.283358	0.604784	3e-06
7	O	0.23922	0.550024	5e-06
8	C	0.267893	0.653646	6e-06
9	C	0.209744	0.641855	5e-06
10	N	0.161972	0.57955	0
11	C	0.319373	0.716673	4e-06
12	O	0.307064	0.758927	7e-06
13	C	0.383573	0.730782	0.999999
14	C	0.428944	0.788281	0.999998
15	N	0.419483	0.839321	0
16	H	0.318811	0.523641	1e-06
17	H	0.197273	0.676853	8e-06
18	H	0.475109	0.796491	0.999997
19	C	0.604347	0.320404	0.999995
20	O	0.549699	0.310896	0.999991
21	C	0.653445	0.383939	0.999998
22	C	0.643587	0.43077	0
23	N	0.582416	0.419818	0
24	C	0.716642	0.395216	3e-06
25	O	0.76078	0.449976	5e-06
26	C	0.732107	0.346354	6e-06
27	C	0.790256	0.358145	5e-06
28	N	0.838028	0.42045	0
29	C	0.680627	0.283327	4e-06
30	O	0.692936	0.241073	7e-06
31	C	0.616427	0.269218	0.999999
32	C	0.571056	0.211719	0.999998
33	N	0.580517	0.160679	0
34	H	0.681189	0.476359	1e-06
35	H	0.802727	0.323147	8e-06
36	H	0.524891	0.203509	0.999997
37	C	0.544844	0.456372	0
38	C	0.530404	0.47042	0.147371
39	N	0.514749	0.485651	0.314195
40	N	0.485251	0.514349	0.314195
41	C	0.469596	0.52958	0.147371
42	C	0.455156	0.543628	0
43	C	0.542812	0.086942	0
44	C	0.528818	0.058844	0.147371
45	N	0.513646	0.028383	0.314195
46	N	0.48506	0.970987	0.314195
47	C	0.469888	0.940526	0.147371
48	C	0.455894	0.912428	0
49	C	0.911383	0.45574	0
50	C	0.939817	0.469789	0.147371
51	N	0.970643	0.485019	0.314195
52	N	0.028728	0.513717	0.314195
53	C	0.059554	0.528948	0.147371
54	C	0.087989	0.542997	0
