data_C42H12N12O6_2023-05-11_04:23:23
#******************************************
#
# CIF file created by Zeo++
# Zeo++ is an open source package to
# analyze microporous materials
#
#*******************************************

_cell_length_a		31.9593   
_cell_length_b		32.2579   
_cell_length_c		7   
_cell_angle_alpha		90   
_cell_angle_beta		90   
_cell_angle_gamma		119.596   

_symmetry_space_group_name_H-M		'P1'
_symmetry_Int_Tables_number		1
_symmetry_cell_setting		Monoclinic

loop_
_symmetry_equiv_pos_as_xyz
'+x,+y,+z'

loop_
_atom_site_label
_atom_site_type_symbol
_atom_site_fract_x
_atom_site_fract_y
_atom_site_fract_z
1	C	0.381799	0.676755	0.999995
2	O	0.424294	0.684173	0.999991
3	C	0.343519	0.627181	0.999998
4	C	0.351098	0.590641	0
5	N	0.398666	0.599186	0
6	C	0.294375	0.618382	3e-06
7	O	0.259967	0.575654	5e-06
8	C	0.282442	0.656507	6e-06
9	C	0.237221	0.647307	5e-06
10	N	0.199975	0.598693	0
11	C	0.322573	0.705685	4e-06
12	O	0.313081	0.738654	7e-06
13	C	0.372502	0.716694	0.999999
14	C	0.407873	0.761558	0.999998
15	N	0.400611	0.801383	0
16	H	0.321786	0.555069	1e-06
17	H	0.227591	0.674615	8e-06
18	H	0.443773	0.767964	0.999997
19	C	0.618201	0.323245	0.999995
20	O	0.575706	0.315827	0.999991
21	C	0.656481	0.372819	0.999998
22	C	0.648902	0.409359	0
23	N	0.601334	0.400814	0
24	C	0.705625	0.381618	3e-06
25	O	0.740033	0.424346	5e-06
26	C	0.717558	0.343493	6e-06
27	C	0.762779	0.352693	5e-06
28	N	0.800025	0.401307	0
29	C	0.677427	0.294315	4e-06
30	O	0.686919	0.261346	7e-06
31	C	0.627498	0.283306	0.999999
32	C	0.592127	0.238442	0.999998
33	N	0.599389	0.198617	0
34	H	0.678214	0.444931	1e-06
35	H	0.772409	0.325385	8e-06
36	H	0.556227	0.232036	0.999997
37	C	0.572195	0.429335	0
38	C	0.550334	0.450733	0.000858
39	C	0.524392	0.476126	0.001674
40	C	0.511022	0.489212	0.170086
41	N	0.486301	0.513409	0.172442
42	C	0.475609	0.523875	0.998327
43	C	0.449666	0.549267	0.999142
44	C	0.427805	0.570665	0
45	C	0.488979	0.510789	0.829914
46	N	0.5137	0.486592	0.827558
47	H	0.519764	0.480655	0.309041
48	H	0.480237	0.519346	0.69096
49	C	0.569949	0.141083	0
50	C	0.548616	0.098288	0.000858
51	C	0.5233	0.047504	0.001674
52	C	0.510254	0.021331	0.170086
53	N	0.48613	0.972937	0.172442
54	C	0.475695	0.952005	0.998327
55	C	0.450379	0.90122	0.999142
56	C	0.429047	0.858425	0
57	C	0.488741	0.978177	0.829914
58	N	0.512865	0.026571	0.827558
59	H	0.518785	0.038444	0.309041
60	H	0.48021	0.961064	0.69096
61	C	0.857108	0.428843	0
62	C	0.900302	0.45024	0.000858
63	C	0.95156	0.475632	0.001674
64	C	0.977977	0.488719	0.170086
65	N	0.026822	0.512916	0.172442
66	C	0.047949	0.523381	0.998327
67	C	0.099207	0.548774	0.999142
68	C	0.142401	0.570172	0
69	C	0.021532	0.510295	0.829914
70	N	0.972687	0.486098	0.827558
71	H	0.960704	0.480162	0.309041
72	H	0.038805	0.518851	0.69096
