data_C66H24N12O6S6_2023-05-10_21:18:38
#******************************************
#
# CIF file created by Zeo++
# Zeo++ is an open source package to
# analyze microporous materials
#
#*******************************************

_cell_length_a		34.4541   
_cell_length_b		34.7527   
_cell_length_c		7   
_cell_angle_alpha		90   
_cell_angle_beta		90   
_cell_angle_gamma		119.625   

_symmetry_space_group_name_H-M		'P1'
_symmetry_Int_Tables_number		1
_symmetry_cell_setting		Monoclinic

loop_
_symmetry_equiv_pos_as_xyz
'+x,+y,+z'

loop_
_atom_site_label
_atom_site_type_symbol
_atom_site_fract_x
_atom_site_fract_y
_atom_site_fract_z
1	C	0.378295	0.676033	0.999995
2	O	0.417718	0.682921	0.999991
3	C	0.34276	0.630005	0.999998
4	C	0.34977	0.596078	0
5	N	0.393899	0.604012	0
6	C	0.29717	0.621835	3e-06
7	O	0.26523	0.582163	5e-06
8	C	0.286122	0.657234	6e-06
9	C	0.24417	0.648691	5e-06
10	N	0.209594	0.603554	0
11	C	0.323373	0.702894	4e-06
12	O	0.314587	0.733506	7e-06
13	C	0.369693	0.713116	0.999999
14	C	0.402528	0.754771	0.999998
15	N	0.395814	0.791748	0
16	H	0.322561	0.56305	1e-06
17	H	0.235252	0.674046	8e-06
18	H	0.435831	0.760719	0.999997
19	C	0.621705	0.323967	0.999995
20	O	0.582282	0.317079	0.999991
21	C	0.65724	0.369995	0.999998
22	C	0.65023	0.403922	0
23	N	0.606101	0.395988	0
24	C	0.70283	0.378165	3e-06
25	O	0.73477	0.417837	5e-06
26	C	0.713878	0.342766	6e-06
27	C	0.75583	0.351309	5e-06
28	N	0.790406	0.396446	0
29	C	0.676627	0.297106	4e-06
30	O	0.685413	0.266494	7e-06
31	C	0.630307	0.286884	0.999999
32	C	0.597472	0.245229	0.999998
33	N	0.604186	0.208252	0
34	H	0.677439	0.43695	1e-06
35	H	0.764748	0.325954	8e-06
36	H	0.564169	0.239281	0.999997
37	C	0.420912	0.57753	0
38	C	0.432246	0.566294	0.141796
39	C	0.445935	0.55267	0.309803
40	C	0.436524	0.561667	0.490294
41	S	0.456935	0.542217	0.665144
42	C	0.478373	0.52147	0.4999
43	C	0.470727	0.529448	0.313703
44	C	0.486021	0.514178	0.151447
45	C	0.528357	0.518454	0.144809
46	N	0.543145	0.504435	0.994886
47	C	0.513971	0.485815	0.848554
48	C	0.529265	0.470545	0.686298
49	C	0.521617	0.47852	0.500101
50	S	0.543055	0.457773	0.334857
51	C	0.563469	0.438327	0.509708
52	C	0.55406	0.447325	0.690199
53	C	0.567751	0.433704	0.858205
54	C	0.579088	0.42247	0
55	C	0.471636	0.48154	0.855191
56	N	0.456848	0.495558	0.005115
57	H	0.418573	0.57875	0.52871
58	H	0.495221	0.504057	0.54951
59	H	0.552275	0.533751	0.259827
60	H	0.504767	0.495931	0.45049
61	H	0.581421	0.421244	0.471293
62	H	0.447718	0.466243	0.740175
63	C	0.422221	0.844711	0
64	C	0.433427	0.867058	0.141796
65	C	0.447014	0.894099	0.309803
66	C	0.438045	0.875875	0.490294
67	S	0.457436	0.915338	0.665144
68	C	0.478122	0.957102	0.4999
69	C	0.470163	0.941633	0.313703
70	C	0.485392	0.971894	0.151447
71	C	0.480776	0.009465	0.144809
72	N	0.494752	0.037984	0.994886
73	C	0.513683	0.027649	0.848554
74	C	0.528913	0.05791	0.686298
75	C	0.520956	0.04244	0.500101
76	S	0.541643	0.084205	0.334857
77	C	0.561031	0.123668	0.509708
78	C	0.55206	0.105444	0.690199
79	C	0.565644	0.132485	0.858205
80	C	0.576848	0.154832	0
81	C	0.518299	0.990077	0.855191
82	N	0.504323	0.961559	0.005115
83	H	0.421012	0.84119	0.52871
84	H	0.495493	0.991025	0.54951
85	H	0.465225	0.017907	0.259827
86	H	0.503587	0.008518	0.45049
87	H	0.578062	0.158353	0.471293
88	H	0.53385	0.981636	0.740175
89	C	0.156173	0.577073	0
90	C	0.133633	0.565962	0.141796
91	C	0.106357	0.552545	0.309803
92	C	0.124737	0.561772	0.490294
93	S	0.084936	0.541759	0.665144
94	C	0.042811	0.520741	0.4999
95	C	0.058416	0.528233	0.313703
96	C	0.027893	0.513242	0.151447
97	C	0.990173	0.471395	0.144809
98	N	0.961409	0.456895	0.994886
99	C	0.971652	0.48585	0.848554
100	C	0.941128	0.470859	0.686298
101	C	0.956733	0.478353	0.500101
102	S	0.914609	0.457336	0.334857
103	C	0.874807	0.437319	0.509708
104	C	0.893187	0.446545	0.690199
105	C	0.865911	0.433125	0.858205
106	C	0.84337	0.422012	0
107	C	0.009372	0.527697	0.855191
108	N	0.038135	0.542197	0.005115
109	H	0.159721	0.579374	0.52871
110	H	0.008592	0.504232	0.54951
111	H	0.981807	0.447657	0.259827
112	H	0.990952	0.494864	0.45049
113	H	0.839823	0.419717	0.471293
114	H	0.017738	0.551435	0.740175
