data_C54H18N18O6_2023-05-11_07:22:07
#******************************************
#
# CIF file created by Zeo++
# Zeo++ is an open source package to
# analyze microporous materials
#
#*******************************************

_cell_length_a		39.2877   
_cell_length_b		39.5863   
_cell_length_c		7   
_cell_angle_alpha		90   
_cell_angle_beta		90   
_cell_angle_gamma		119.671   

_symmetry_space_group_name_H-M		'P1'
_symmetry_Int_Tables_number		1
_symmetry_cell_setting		Monoclinic

loop_
_symmetry_equiv_pos_as_xyz
'+x,+y,+z'

loop_
_atom_site_label
_atom_site_type_symbol
_atom_site_fract_x
_atom_site_fract_y
_atom_site_fract_z
1	C	0.372771	0.674893	0.999995
2	O	0.407349	0.680943	0.999991
3	C	0.341571	0.634467	0.999998
4	C	0.34769	0.604669	0
5	N	0.386396	0.611637	0
6	C	0.301583	0.627291	3e-06
7	O	0.27354	0.592448	5e-06
8	C	0.291923	0.658382	6e-06
9	C	0.255126	0.650879	5e-06
10	N	0.224767	0.611235	0
11	C	0.324628	0.698485	4e-06
12	O	0.316948	0.725371	7e-06
13	C	0.365257	0.707463	0.999999
14	C	0.394087	0.744049	0.999998
15	N	0.388229	0.776525	0
16	H	0.323802	0.57566	1e-06
17	H	0.247325	0.673148	8e-06
18	H	0.423297	0.749273	0.999997
19	C	0.627229	0.325107	0.999995
20	O	0.592651	0.319057	0.999991
21	C	0.658429	0.365533	0.999998
22	C	0.65231	0.395331	0
23	N	0.613604	0.388363	0
24	C	0.698417	0.372709	3e-06
25	O	0.72646	0.407552	5e-06
26	C	0.708077	0.341618	6e-06
27	C	0.744874	0.349121	5e-06
28	N	0.775233	0.388765	0
29	C	0.675372	0.301515	4e-06
30	O	0.683052	0.274629	7e-06
31	C	0.634743	0.292537	0.999999
32	C	0.605913	0.255951	0.999998
33	N	0.611771	0.223475	0
34	H	0.676198	0.42434	1e-06
35	H	0.752675	0.326852	8e-06
36	H	0.576703	0.250727	0.999997
37	C	0.410065	0.588378	0
38	C	0.42097	0.577664	0.16831
39	N	0.441062	0.557919	0.171195
40	C	0.449781	0.549349	0.997343
41	C	0.470857	0.528639	0.998413
42	C	0.488615	0.511188	0.999397
43	C	0.511386	0.488813	0.00061
44	C	0.529144	0.471362	0.001593
45	C	0.55022	0.450652	0.002663
46	N	0.55894	0.442084	0.828809
47	C	0.579032	0.422339	0.831691
48	C	0.589935	0.411622	0
49	N	0.581134	0.42027	0.173682
50	C	0.561058	0.439999	0.171078
51	C	0.438941	0.559999	0.828925
52	N	0.418865	0.579728	0.826319
53	H	0.413899	0.584616	0.307389
54	H	0.586105	0.415389	0.692612
55	H	0.553934	0.447	0.309944
56	H	0.446064	0.552998	0.69006
57	C	0.41143	0.823042	0
58	C	0.422118	0.844474	0.16831
59	N	0.441814	0.883963	0.171195
60	C	0.450364	0.901101	0.997343
61	C	0.471023	0.942522	0.998413
62	C	0.488431	0.977424	0.999397
63	C	0.510751	0.022175	0.00061
64	C	0.52816	0.057077	0.001593
65	C	0.548819	0.098498	0.002663
66	N	0.557366	0.115636	0.828809
67	C	0.577063	0.155124	0.831691
68	C	0.587754	0.176556	0
69	N	0.579127	0.159259	0.173682
70	C	0.559445	0.119801	0.171078
71	C	0.43974	0.879798	0.828925
72	N	0.420059	0.840341	0.826319
73	H	0.415183	0.830573	0.307389
74	H	0.583996	0.169025	0.692612
75	H	0.552462	0.1058	0.309944
76	H	0.446724	0.893799	0.69006
77	C	0.177897	0.587976	0
78	C	0.156303	0.57726	0.16831
79	N	0.116515	0.557515	0.171195
80	C	0.099247	0.548947	0.997343
81	C	0.057512	0.528237	0.998413
82	C	0.022345	0.510785	0.999397
83	C	0.977254	0.488409	0.00061
84	C	0.942088	0.470958	0.001593
85	C	0.900353	0.450248	0.002663
86	N	0.883085	0.441678	0.828809
87	C	0.843297	0.421934	0.831691
88	C	0.821702	0.41122	0
89	N	0.839131	0.419869	0.173682
90	C	0.878888	0.439597	0.171078
91	C	0.120711	0.5596	0.828925
92	N	0.160468	0.579329	0.826319
93	H	0.170309	0.584209	0.307389
94	H	0.82929	0.414983	0.692612
95	H	0.892995	0.446598	0.309944
96	H	0.106604	0.5526	0.69006
