data_C114H54N6O6S24_2023-05-15_03:13:16
#******************************************
#
# CIF file created by Zeo++
# Zeo++ is an open source package to
# analyze microporous materials
#
#*******************************************

_cell_length_a		65.5347   
_cell_length_b		65.8331   
_cell_length_c		7   
_cell_angle_alpha		90   
_cell_angle_beta		90   
_cell_angle_gamma		119.802   

_symmetry_space_group_name_H-M		'P1'
_symmetry_Int_Tables_number		1
_symmetry_cell_setting		Monoclinic

loop_
_symmetry_equiv_pos_as_xyz
'+x,+y,+z'

loop_
_atom_site_label
_atom_site_type_symbol
_atom_site_fract_x
_atom_site_fract_y
_atom_site_fract_z
1	C	0.356989	0.67162	0.999995
2	O	0.377728	0.675262	0.999991
3	C	0.33822	0.647279	0.999998
4	C	0.341842	0.629338	0
5	N	0.365057	0.633533	0
6	C	0.314236	0.642959	3e-06
7	O	0.297369	0.621979	5e-06
8	C	0.308495	0.661678	6e-06
9	C	0.286423	0.657161	5e-06
10	N	0.26816	0.633291	0
11	C	0.328166	0.685825	4e-06
12	O	0.323604	0.702013	7e-06
13	C	0.352537	0.69123	0.999999
14	C	0.369878	0.713258	0.999998
15	N	0.366418	0.732813	0
16	H	0.327475	0.611872	1e-06
17	H	0.281782	0.670569	8e-06
18	H	0.387398	0.716404	0.999997
19	C	0.643011	0.32838	0.999995
20	O	0.622272	0.324738	0.999991
21	C	0.66178	0.352721	0.999998
22	C	0.658158	0.370662	0
23	N	0.634943	0.366467	0
24	C	0.685764	0.357041	3e-06
25	O	0.702631	0.378021	5e-06
26	C	0.691505	0.338322	6e-06
27	C	0.713577	0.342839	5e-06
28	N	0.73184	0.366709	0
29	C	0.671834	0.314175	4e-06
30	O	0.676396	0.297987	7e-06
31	C	0.647463	0.30877	0.999999
32	C	0.630122	0.286742	0.999998
33	N	0.633582	0.267187	0
34	H	0.672525	0.388128	1e-06
35	H	0.718218	0.329431	8e-06
36	H	0.612602	0.283596	0.999997
37	C	0.379208	0.619529	0
38	C	0.385847	0.610248	0.85365
39	S	0.397233	0.593639	0.939061
40	C	0.393353	0.598951	0.173598
41	C	0.399642	0.589217	0.333754
42	C	0.390841	0.586117	0.51751
43	C	0.400811	0.576298	0.643019
44	C	0.417154	0.57203	0.553973
45	C	0.430542	0.562386	0.641623
46	C	0.43368	0.560698	0.835115
47	C	0.447743	0.550217	0.875303
48	C	0.455154	0.54391	0.712192
49	C	0.469778	0.533115	0.703872
50	C	0.482975	0.531555	0.851302
51	C	0.495425	0.519785	0.797377
52	C	0.491616	0.51242	0.609214
53	C	0.501353	0.500086	0.50598
54	C	0.499848	0.495197	0.312719
55	C	0.511668	0.482758	0.259941
56	C	0.522075	0.478198	0.413332
57	C	0.53552	0.466126	0.41313
58	C	0.54354	0.459105	0.568339
59	C	0.556364	0.447702	0.514777
60	C	0.558067	0.446111	0.319037
61	C	0.569747	0.435776	0.214201
62	C	0.572487	0.435229	0.018648
63	C	0.585014	0.42352	0.965166
64	C	0.591795	0.415279	0.120332
65	C	0.604576	0.402557	0.114604
66	C	0.606984	0.390996	0.95815
67	C	0.620792	0.380471	0
68	C	0.628782	0.383984	0.184533
69	S	0.619476	0.400229	0.308737
70	S	0.582587	0.42189	0.328678
71	S	0.543829	0.458575	0.204356
72	S	0.517134	0.489222	0.619552
73	S	0.472738	0.519968	0.502362
74	S	0.444765	0.550975	0.512727
75	S	0.420034	0.580188	0.318243
76	C	0.383356	0.613187	0.183327
77	H	0.384639	0.612287	0.701525
78	H	0.377657	0.590505	0.561663
79	H	0.395942	0.572494	0.792056
80	H	0.426388	0.566796	0.945096
81	H	0.452046	0.547453	0.018818
82	H	0.483974	0.538647	0.992779
83	H	0.506745	0.517076	0.894258
84	H	0.490763	0.5003	0.210875
85	H	0.512312	0.477495	0.114429
86	H	0.54047	0.461872	0.715684
87	H	0.563955	0.44107	0.617807
88	H	0.565911	0.442894	0.915872
89	H	0.588898	0.421504	0.818249
90	H	0.599036	0.390049	0.820398
91	H	0.639558	0.377922	0.253165
92	H	0.379378	0.618877	0.316387
93	C	0.380402	0.760821	0
94	C	0.389681	0.776661	0.85365
95	S	0.406287	0.804515	0.939061
96	C	0.400977	0.79537	0.173598
97	C	0.41071	0.811313	0.333754
98	C	0.413853	0.805656	0.51751
99	C	0.423658	0.825341	0.643019
100	C	0.427871	0.845829	0.553973
101	C	0.437486	0.868735	0.641623
102	C	0.439167	0.873535	0.835115
103	C	0.449618	0.897945	0.875303
104	C	0.455912	0.911589	0.712192
105	C	0.466676	0.93687	0.703872
106	C	0.468187	0.951535	0.851302
107	C	0.479939	0.975628	0.797377
108	C	0.487337	0.979178	0.609214
109	C	0.499664	0.001137	0.50598
110	C	0.504572	0.004512	0.312719
111	C	0.516995	0.028644	0.259941
112	C	0.521526	0.043526	0.413332
113	C	0.533575	0.068906	0.41313
114	C	0.540582	0.083867	0.568339
115	C	0.551963	0.107966	0.514777
116	C	0.553552	0.111242	0.319037
117	C	0.563866	0.133141	0.214201
118	C	0.564404	0.136408	0.018648
119	C	0.576093	0.160515	0.965166
120	C	0.584328	0.17546	0.120332
121	C	0.597031	0.200829	0.114604
122	C	0.608613	0.214736	0.95815
123	C	0.61911	0.238938	0
124	C	0.615556	0.243377	0.184533
125	S	0.599306	0.217951	0.308737
126	S	0.577736	0.159727	0.328678
127	S	0.541112	0.084683	0.204356
128	S	0.510493	0.027637	0.619552
129	S	0.479845	0.952906	0.502362
130	S	0.44887	0.894231	0.512727
131	S	0.419681	0.840565	0.318243
132	C	0.386744	0.771258	0.183327
133	H	0.387641	0.773428	0.701525
134	H	0.409507	0.788188	0.561663
135	H	0.427491	0.824293	0.792056
136	H	0.433082	0.860217	0.945096
137	H	0.452372	0.904973	0.018818
138	H	0.461074	0.945465	0.992779
139	H	0.482609	0.989573	0.894258
140	H	0.499492	0.990403	0.210875
141	H	0.522269	0.034526	0.114429
142	H	0.53782	0.078061	0.715684
143	H	0.558582	0.122113	0.617807
144	H	0.556746	0.122239	0.915872
145	H	0.578098	0.166382	0.818249
146	H	0.609593	0.207784	0.820398
147	H	0.62159	0.260121	0.253165
148	H	0.381055	0.761639	0.316387
149	C	0.240025	0.619287	0
150	C	0.224107	0.612729	0.85365
151	S	0.196115	0.601484	0.939061
152	C	0.205305	0.605317	0.173598
153	C	0.189283	0.599107	0.333754
154	C	0.194941	0.607864	0.51751
155	C	0.175167	0.597998	0.643019
156	C	0.15461	0.581778	0.553973
157	C	0.131606	0.568515	0.641623
158	C	0.126788	0.565404	0.835115
159	C	0.102274	0.551475	0.875303
160	C	0.088569	0.544137	0.712192
161	C	0.063181	0.529651	0.703872
162	C	0.048473	0.516547	0.851302
163	C	0.024271	0.504224	0.797377
164	C	0.020682	0.508038	0.609214
165	C	0.998618	0.498413	0.50598
166	C	0.995216	0.499928	0.312719
167	C	0.970972	0.488235	0.259941
168	C	0.956034	0.477913	0.413332
169	C	0.930541	0.464604	0.41313
170	C	0.915513	0.456664	0.568339
171	C	0.891307	0.443969	0.514777
172	C	0.888017	0.442284	0.319037
173	C	0.866021	0.43072	0.214201
174	C	0.862744	0.428001	0.018648
175	C	0.838528	0.415602	0.965166
176	C	0.823512	0.408898	0.120332
177	C	0.798028	0.396251	0.114604
178	C	0.784039	0.393905	0.95815
179	C	0.759734	0.380229	0
180	C	0.755297	0.372276	0.184533
181	S	0.780853	0.381457	0.308737
182	S	0.839312	0.41802	0.328678
183	S	0.914693	0.456379	0.204356
184	S	0.972008	0.482778	0.619552
185	S	0.047051	0.526763	0.502362
186	S	0.106	0.554431	0.512727
187	S	0.15992	0.578884	0.318243
188	C	0.229535	0.615192	0.183327
189	H	0.227356	0.613921	0.701525
190	H	0.212472	0.620945	0.561663
191	H	0.176202	0.60285	0.792056
192	H	0.140164	0.572624	0.945096
193	H	0.095217	0.547211	0.018818
194	H	0.054587	0.515526	0.992779
195	H	0.01028	0.492989	0.894258
196	H	0.00938	0.508934	0.210875
197	H	0.965054	0.487616	0.114429
198	H	0.921345	0.459704	0.715684
199	H	0.877099	0.436454	0.617807
200	H	0.876979	0.434504	0.915872
201	H	0.832638	0.411751	0.818249
202	H	0.791005	0.401804	0.820398
203	H	0.738487	0.361594	0.253165
204	H	0.239202	0.619122	0.316387
