data_C30H12N12O6_2023-05-11_21:54:00
#******************************************
#
# CIF file created by Zeo++
# Zeo++ is an open source package to
# analyze microporous materials
#
#*******************************************

_cell_length_a		22.889   
_cell_length_b		23.1879   
_cell_length_c		7   
_cell_angle_alpha		90   
_cell_angle_beta		90   
_cell_angle_gamma		119.437   

_symmetry_space_group_name_H-M		'P1'
_symmetry_Int_Tables_number		1
_symmetry_cell_setting		Monoclinic

loop_
_symmetry_equiv_pos_as_xyz
'+x,+y,+z'

loop_
_atom_site_label
_atom_site_type_symbol
_atom_site_fract_x
_atom_site_fract_y
_atom_site_fract_z
1	C	0.400958	0.680679	0.999995
2	O	0.460261	0.690983	0.999991
3	C	0.347731	0.611822	0.999998
4	C	0.358477	0.561068	0
5	N	0.424857	0.572937	0
6	C	0.279152	0.5996	3e-06
7	O	0.2313	0.540253	5e-06
8	C	0.26232	0.652555	6e-06
9	C	0.199221	0.639776	5e-06
10	N	0.147432	0.572252	0
11	C	0.318133	0.720862	4e-06
12	O	0.304733	0.766656	7e-06
13	C	0.387798	0.736153	0.999999
14	C	0.436986	0.798468	0.999998
15	N	0.426668	0.853785	0
16	H	0.317709	0.51166	1e-06
17	H	0.185651	0.677707	8e-06
18	H	0.487083	0.807367	0.999997
19	C	0.599042	0.319321	0.999995
20	O	0.539739	0.309017	0.999991
21	C	0.652269	0.388178	0.999998
22	C	0.641523	0.438932	0
23	N	0.575143	0.427063	0
24	C	0.720848	0.4004	3e-06
25	O	0.7687	0.459747	5e-06
26	C	0.73768	0.347445	6e-06
27	C	0.800779	0.360224	5e-06
28	N	0.852568	0.427748	0
29	C	0.681867	0.279138	4e-06
30	O	0.695267	0.233344	7e-06
31	C	0.612202	0.263847	0.999999
32	C	0.563014	0.201532	0.999998
33	N	0.573332	0.146215	0
34	H	0.682291	0.48834	1e-06
35	H	0.814349	0.322293	8e-06
36	H	0.512917	0.192633	0.999997
37	C	0.46567	0.533322	0
38	C	0.484285	0.515254	0.831171
39	N	0.518922	0.481634	0.827088
40	C	0.53433	0.466678	0
41	C	0.515715	0.484747	0.168829
42	N	0.481078	0.518366	0.172912
43	H	0.47194	0.527236	0.692485
44	H	0.52806	0.472764	0.307515
45	C	0.466116	0.933015	0
46	C	0.484108	0.969152	0.831171
47	N	0.517586	0.036391	0.827088
48	C	0.532478	0.066302	0
49	C	0.514486	0.030166	0.168829
50	N	0.481009	0.962927	0.172912
51	H	0.472176	0.945186	0.692485
52	H	0.526419	0.054132	0.307515
53	C	0.06717	0.532637	0
54	C	0.030563	0.514569	0.831171
55	N	0.962449	0.480949	0.827088
56	C	0.932149	0.465994	0
57	C	0.968755	0.484062	0.168829
58	N	0.03687	0.517681	0.172912
59	H	0.054841	0.526552	0.692485
60	H	0.944478	0.472079	0.307515
