data_C96H48N12O6S12_2023-05-13_06:41:51
#******************************************
#
# CIF file created by Zeo++
# Zeo++ is an open source package to
# analyze microporous materials
#
#*******************************************

_cell_length_a		56.4902   
_cell_length_b		56.7886   
_cell_length_c		7   
_cell_angle_alpha		90   
_cell_angle_beta		90   
_cell_angle_gamma		119.77   

_symmetry_space_group_name_H-M		'P1'
_symmetry_Int_Tables_number		1
_symmetry_cell_setting		Monoclinic

loop_
_symmetry_equiv_pos_as_xyz
'+x,+y,+z'

loop_
_atom_site_label
_atom_site_type_symbol
_atom_site_fract_x
_atom_site_fract_y
_atom_site_fract_z
1	C	0.360773	0.672407	0.999995
2	O	0.38483	0.676628	0.999991
3	C	0.339017	0.644198	0.999998
4	C	0.343231	0.623406	0
5	N	0.37016	0.628268	0
6	C	0.311196	0.639192	3e-06
7	O	0.291644	0.614878	5e-06
8	C	0.304522	0.660886	6e-06
9	C	0.27892	0.65565	5e-06
10	N	0.25775	0.627988	0
11	C	0.327324	0.688869	4e-06
12	O	0.322021	0.707629	7e-06
13	C	0.355593	0.695133	0.999999
14	C	0.375695	0.720662	0.999998
15	N	0.371667	0.743323	0
16	H	0.326577	0.603165	1e-06
17	H	0.273526	0.671189	8e-06
18	H	0.396018	0.724307	0.999997
19	C	0.639227	0.327593	0.999995
20	O	0.61517	0.323372	0.999991
21	C	0.660983	0.355802	0.999998
22	C	0.656769	0.376594	0
23	N	0.62984	0.371732	0
24	C	0.688804	0.360808	3e-06
25	O	0.708356	0.385122	5e-06
26	C	0.695478	0.339114	6e-06
27	C	0.72108	0.34435	5e-06
28	N	0.74225	0.372012	0
29	C	0.672676	0.311131	4e-06
30	O	0.677979	0.292371	7e-06
31	C	0.644407	0.304867	0.999999
32	C	0.624305	0.279338	0.999998
33	N	0.628333	0.256677	0
34	H	0.673423	0.396835	1e-06
35	H	0.726474	0.328811	8e-06
36	H	0.603982	0.275693	0.999997
37	C	0.386588	0.612039	0
38	C	0.390866	0.607804	0.186263
39	C	0.40551	0.593338	0.197911
40	C	0.411859	0.587075	0.020327
41	C	0.426441	0.572672	0.977945
42	C	0.432754	0.566451	0.801168
43	C	0.447385	0.551998	0.813302
44	C	0.45222	0.547206	0.999313
45	C	0.466576	0.53302	0.068502
46	C	0.470219	0.529432	0.261606
47	C	0.484043	0.515773	0.317774
48	C	0.494406	0.505523	0.18041
49	C	0.509365	0.490745	0.226575
50	C	0.514577	0.48558	0.412037
51	C	0.52881	0.47152	0.442291
52	C	0.537989	0.462466	0.288712
53	C	0.553018	0.447619	0.319854
54	C	0.56026	0.440467	0.490098
55	C	0.574796	0.426107	0.464118
56	C	0.578637	0.42231	0.274075
57	C	0.592556	0.40856	0.19978
58	C	0.604607	0.39665	0.305732
59	C	0.616694	0.384711	0.190138
60	C	0.613412	0.387961	0
61	S	0.596321	0.404847	0.958985
62	S	0.56433	0.43644	0.131359
63	C	0.531887	0.468508	0.10897
64	N	0.51814	0.48209	0.075782
65	N	0.491038	0.50884	0.992165
66	C	0.477577	0.522141	0.941774
67	S	0.438575	0.560668	0.155409
68	S	0.399674	0.59912	0.841454
69	H	0.384038	0.614544	0.308388
70	H	0.411034	0.587875	0.332239
71	H	0.427263	0.571889	0.666598
72	H	0.453918	0.545558	0.688023
73	H	0.462492	0.537078	0.373506
74	H	0.486302	0.513551	0.469347
75	H	0.507915	0.492148	0.53607
76	H	0.532455	0.467906	0.588902
77	H	0.555502	0.44517	0.629851
78	H	0.582002	0.41899	0.581916
79	H	0.604884	0.396371	0.460384
80	H	0.627085	0.374444	0.24515
81	H	0.53788	0.462599	0.97801
82	H	0.476082	0.523609	0.78803
83	C	0.387868	0.775782	0
84	C	0.392096	0.784243	0.186263
85	C	0.406538	0.813176	0.197911
86	C	0.41279	0.82571	0.020327
87	C	0.427168	0.854519	0.977945
88	C	0.433378	0.866977	0.801168
89	C	0.447806	0.895884	0.813302
90	C	0.452591	0.905452	0.999313
91	C	0.466752	0.93382	0.068502
92	C	0.470334	0.941007	0.261606
93	C	0.48397	0.968323	0.317774
94	C	0.494203	0.988811	0.18041
95	C	0.508956	0.018366	0.226575
96	C	0.514112	0.02868	0.412037
97	C	0.528148	0.056802	0.442291
98	C	0.537187	0.074924	0.288712
99	C	0.552008	0.104617	0.319854
100	C	0.559148	0.118923	0.490098
101	C	0.573484	0.147643	0.464118
102	C	0.577274	0.155235	0.274075
103	C	0.591001	0.182736	0.19978
104	C	0.60289	0.20655	0.305732
105	C	0.614809	0.23043	0.190138
106	C	0.611565	0.223938	0
107	S	0.594707	0.190168	0.958985
108	S	0.563168	0.126971	0.131359
109	C	0.531155	0.062854	0.10897
110	N	0.517596	0.03569	0.075782
111	N	0.490891	0.982166	0.992165
112	C	0.477614	0.955568	0.941774
113	S	0.439151	0.87851	0.155409
114	S	0.400765	0.801628	0.841454
115	H	0.385367	0.770757	0.308388
116	H	0.411991	0.824096	0.332239
117	H	0.42795	0.856115	0.666598
118	H	0.454236	0.908778	0.688023
119	H	0.462702	0.925728	0.373506
120	H	0.486188	0.972776	0.469347
121	H	0.507556	0.015532	0.53607
122	H	0.531756	0.064016	0.588902
123	H	0.554453	0.10952	0.629851
124	H	0.580589	0.16188	0.581916
125	H	0.603169	0.207103	0.460384
126	H	0.625059	0.250963	0.24515
127	H	0.537054	0.074683	0.97801
128	H	0.476148	0.952622	0.78803
129	C	0.22512	0.611759	0
130	C	0.216615	0.607532	0.186263
131	C	0.187529	0.593066	0.197911
132	C	0.174928	0.586794	0.020327
133	C	0.145968	0.572388	0.977945
134	C	0.133444	0.566151	0.801168
135	C	0.104385	0.551697	0.813302
136	C	0.094766	0.546921	0.999313
137	C	0.066248	0.532739	0.068502
138	C	0.059023	0.52914	0.261606
139	C	0.031563	0.515483	0.317774
140	C	0.010968	0.505245	0.18041
141	C	0.981256	0.490468	0.226575
142	C	0.970888	0.485319	0.412037
143	C	0.942618	0.471258	0.442291
144	C	0.9244	0.46219	0.288712
145	C	0.89455	0.447343	0.319854
146	C	0.880169	0.440189	0.490098
147	C	0.851297	0.425829	0.464118
148	C	0.843666	0.422035	0.274075
149	C	0.816019	0.408284	0.19978
150	C	0.792079	0.396379	0.305732
151	C	0.768073	0.384438	0.190138
152	C	0.7746	0.38768	0
153	S	0.808548	0.404564	0.958985
154	S	0.872078	0.436168	0.131359
155	C	0.936534	0.468218	0.10897
156	N	0.963841	0.481799	0.075782
157	N	0.017647	0.508573	0.992165
158	C	0.044386	0.521871	0.941774
159	S	0.12185	0.560401	0.155409
160	S	0.199138	0.598832	0.841454
161	H	0.230171	0.614278	0.308388
162	H	0.176551	0.587608	0.332239
163	H	0.144364	0.571576	0.666598
164	H	0.091422	0.545243	0.688023
165	H	0.074383	0.536773	0.373506
166	H	0.027087	0.513252	0.469347
167	H	0.984105	0.4919	0.53607
168	H	0.935366	0.467657	0.588902
169	H	0.889621	0.444889	0.629851
170	H	0.836985	0.41871	0.581916
171	H	0.791524	0.396105	0.460384
172	H	0.747432	0.374173	0.24515
173	H	0.924643	0.462298	0.97801
174	H	0.047347	0.523348	0.78803
