data_C60H30N6O6S6_2023-05-13_01:23:50
#******************************************
#
# CIF file created by Zeo++
# Zeo++ is an open source package to
# analyze microporous materials
#
#*******************************************

_cell_length_a		36.0468   
_cell_length_b		36.3454   
_cell_length_c		7   
_cell_angle_alpha		90   
_cell_angle_beta		90   
_cell_angle_gamma		119.641   

_symmetry_space_group_name_H-M		'P1'
_symmetry_Int_Tables_number		1
_symmetry_cell_setting		Monoclinic

loop_
_symmetry_equiv_pos_as_xyz
'+x,+y,+z'

loop_
_atom_site_label
_atom_site_type_symbol
_atom_site_fract_x
_atom_site_fract_y
_atom_site_fract_z
1	C	0.376311	0.675624	0.999995
2	O	0.413994	0.682212	0.999991
3	C	0.342332	0.631606	0.999998
4	C	0.349021	0.59916	0
5	N	0.391203	0.606748	0
6	C	0.298753	0.623793	3e-06
7	O	0.268212	0.585853	5e-06
8	C	0.288205	0.657646	6e-06
9	C	0.248104	0.649476	5e-06
10	N	0.215042	0.60631	0
11	C	0.323825	0.701313	4e-06
12	O	0.315437	0.730587	7e-06
13	C	0.368101	0.711088	0.999999
14	C	0.399499	0.750924	0.999998
15	N	0.393093	0.786286	0
16	H	0.323004	0.567574	1e-06
17	H	0.239588	0.673724	8e-06
18	H	0.431332	0.756612	0.999997
19	C	0.623689	0.324376	0.999995
20	O	0.586006	0.317788	0.999991
21	C	0.657668	0.368394	0.999998
22	C	0.650979	0.40084	0
23	N	0.608797	0.393252	0
24	C	0.701247	0.376207	3e-06
25	O	0.731788	0.414147	5e-06
26	C	0.711795	0.342354	6e-06
27	C	0.751896	0.350524	5e-06
28	N	0.784958	0.39369	0
29	C	0.676175	0.298687	4e-06
30	O	0.684563	0.269413	7e-06
31	C	0.631899	0.288912	0.999999
32	C	0.600501	0.249076	0.999998
33	N	0.606907	0.213714	0
34	H	0.676996	0.432426	1e-06
35	H	0.760412	0.326276	8e-06
36	H	0.568668	0.243388	0.999997
37	C	0.417014	0.581423	0
38	C	0.413805	0.584563	0.193357
39	S	0.43778	0.561034	0.312989
40	C	0.452826	0.546282	0.10489
41	C	0.476773	0.522786	0.109488
42	C	0.488658	0.511127	0.279822
43	C	0.51134	0.488872	0.279822
44	C	0.523224	0.477211	0.109488
45	C	0.547172	0.453716	0.10489
46	C	0.560894	0.440253	0.94787
47	C	0.582986	0.418577	0
48	C	0.586191	0.415434	0.193357
49	S	0.562213	0.438959	0.312989
50	C	0.511335	0.488875	0.93913
51	C	0.488662	0.511121	0.93913
52	C	0.439107	0.559749	0.947869
53	H	0.398709	0.59937	0.270729
54	H	0.480702	0.518933	0.418265
55	H	0.519297	0.481067	0.418265
56	H	0.555353	0.445688	0.801273
57	H	0.601286	0.400624	0.270729
58	H	0.519362	0.480999	0.801112
59	H	0.480634	0.518996	0.801112
60	H	0.444651	0.554316	0.801273
61	C	0.41835	0.836937	0
62	C	0.415218	0.830648	0.193357
63	S	0.438684	0.877699	0.312989
64	C	0.453397	0.907215	0.10489
65	C	0.47683	0.954207	0.109488
66	C	0.488458	0.977527	0.279822
67	C	0.510653	0.022036	0.279822
68	C	0.522283	0.045357	0.109488
69	C	0.545715	0.092349	0.10489
70	C	0.559143	0.119275	0.94787
71	C	0.58076	0.162627	0
72	C	0.583895	0.168916	0.193357
73	S	0.560433	0.121864	0.312989
74	C	0.51065	0.022027	0.93913
75	C	0.488464	0.977536	0.93913
76	C	0.439966	0.880288	0.947869
77	H	0.400451	0.801029	0.270729
78	H	0.480672	0.961914	0.418265
79	H	0.518438	0.037649	0.418265
80	H	0.553722	0.108404	0.801273
81	H	0.598665	0.198534	0.270729
82	H	0.518505	0.037779	0.801112
83	H	0.48061	0.961784	0.801112
84	H	0.445384	0.89116	0.801273
85	C	0.163973	0.580985	0
86	C	0.170314	0.584134	0.193357
87	S	0.122873	0.56061	0.312989
88	C	0.093114	0.545848	0.10489
89	C	0.045734	0.522351	0.109488
90	C	0.022221	0.510691	0.279822
91	C	0.977343	0.488436	0.279822
92	C	0.95383	0.476776	0.109488
93	C	0.90645	0.453279	0.10489
94	C	0.879301	0.439816	0.94787
95	C	0.835591	0.41814	0
96	C	0.82925	0.414995	0.193357
97	S	0.876691	0.438521	0.312989
98	C	0.977352	0.488441	0.93913
99	C	0.022211	0.510687	0.93913
100	C	0.120263	0.559308	0.947869
101	H	0.200177	0.598945	0.270729
102	H	0.037962	0.518496	0.418265
103	H	0.961602	0.480629	0.418265
104	H	0.890262	0.445252	0.801273
105	H	0.799386	0.400185	0.270729
106	H	0.96147	0.480565	0.801112
107	H	0.038094	0.518564	0.801112
108	H	0.109302	0.553868	0.801273
