data_C84H36N12O6S15_2023-05-12_20:17:30
#******************************************
#
# CIF file created by Zeo++
# Zeo++ is an open source package to
# analyze microporous materials
#
#*******************************************

_cell_length_a		48.7231   
_cell_length_b		49.0216   
_cell_length_c		7   
_cell_angle_alpha		90   
_cell_angle_beta		90   
_cell_angle_gamma		119.734   

_symmetry_space_group_name_H-M		'P1'
_symmetry_Int_Tables_number		1
_symmetry_cell_setting		Monoclinic

loop_
_symmetry_equiv_pos_as_xyz
'+x,+y,+z'

loop_
_atom_site_label
_atom_site_type_symbol
_atom_site_fract_x
_atom_site_fract_y
_atom_site_fract_z
1	C	0.365142	0.673314	0.999995
2	O	0.39303	0.678202	0.999991
3	C	0.339942	0.640648	0.999998
4	C	0.344846	0.61657	0
5	N	0.376063	0.622201	0
6	C	0.307691	0.63485	3e-06
7	O	0.285042	0.606695	5e-06
8	C	0.299934	0.659972	6e-06
9	C	0.270255	0.65391	5e-06
10	N	0.245734	0.621876	0
11	C	0.326347	0.692377	4e-06
12	O	0.320182	0.714102	7e-06
13	C	0.359118	0.699631	0.999999
14	C	0.382402	0.729194	0.999998
15	N	0.377712	0.755437	0
16	H	0.325554	0.59313	1e-06
17	H	0.263988	0.671904	8e-06
18	H	0.405961	0.733416	0.999997
19	C	0.634858	0.326686	0.999995
20	O	0.60697	0.321798	0.999991
21	C	0.660058	0.359352	0.999998
22	C	0.655154	0.38343	0
23	N	0.623937	0.377799	0
24	C	0.692309	0.36515	3e-06
25	O	0.714958	0.393305	5e-06
26	C	0.700066	0.340028	6e-06
27	C	0.729745	0.34609	5e-06
28	N	0.754266	0.378124	0
29	C	0.673653	0.307623	4e-06
30	O	0.679818	0.285898	7e-06
31	C	0.640882	0.300369	0.999999
32	C	0.617598	0.270806	0.999998
33	N	0.622288	0.244563	0
34	H	0.674446	0.40687	1e-06
35	H	0.736012	0.328096	8e-06
36	H	0.594039	0.266584	0.999997
37	C	0.604876	0.396593	0
38	C	0.60874	0.392779	0.809953
39	S	0.592031	0.409253	0.670623
40	C	0.57947	0.421643	0.865838
41	C	0.562283	0.43859	0.843994
42	C	0.553511	0.447238	0.67724
43	C	0.536737	0.463778	0.710644
44	C	0.532644	0.467815	0.902781
45	C	0.516466	0.483769	0.987763
46	C	0.502711	0.497333	0.871083
47	C	0.486838	0.512986	0.939922
48	C	0.482555	0.517208	0.135162
49	C	0.465874	0.533659	0.204358
50	C	0.4598	0.539662	0.388287
51	C	0.442801	0.556421	0.395925
52	C	0.435815	0.563294	0.217427
53	C	0.418978	0.579892	0.170394
54	C	0.411991	0.586778	0.990798
55	C	0.395124	0.603407	0
56	C	0.389351	0.609104	0.182935
57	S	0.404515	0.594155	0.345695
58	S	0.450228	0.549068	0.044223
59	C	0.495854	0.504092	0.263037
60	N	0.495314	0.504622	0.455235
61	S	0.513749	0.486443	0.535534
62	N	0.523663	0.476669	0.332935
63	C	0.513105	0.487082	0.18835
64	S	0.549765	0.450935	0.037087
65	C	0.588233	0.413004	0.033857
66	H	0.620443	0.381239	0.745473
67	H	0.558706	0.442115	0.535572
68	H	0.528192	0.472203	0.594857
69	H	0.50402	0.496043	0.716129
70	H	0.477572	0.522125	0.830705
71	H	0.467023	0.532552	0.516414
72	H	0.436204	0.562937	0.528907
73	H	0.418692	0.580168	0.858589
74	H	0.377079	0.621204	0.22983
75	H	0.582914	0.418252	0.174874
76	C	0.602874	0.206652	0
77	C	0.60668	0.214276	0.809953
78	S	0.590239	0.181327	0.670623
79	C	0.577873	0.156551	0.865838
80	C	0.56096	0.122658	0.843994
81	C	0.552329	0.105362	0.67724
82	C	0.535821	0.072282	0.710644
83	C	0.531792	0.06421	0.902781
84	C	0.51587	0.032304	0.987763
85	C	0.502333	0.005178	0.871083
86	C	0.486711	0.973874	0.939922
87	C	0.482497	0.965429	0.135162
88	C	0.466079	0.932531	0.204358
89	C	0.460088	0.92054	0.388287
90	C	0.443361	0.887019	0.395925
91	C	0.436502	0.873258	0.217427
92	C	0.419936	0.840058	0.170394
93	C	0.413065	0.826283	0.990798
94	C	0.396469	0.793024	0
95	C	0.390783	0.781635	0.182935
96	S	0.405702	0.811535	0.345695
97	S	0.4507	0.901694	0.044223
98	C	0.495587	0.991658	0.263037
99	N	0.495058	0.990595	0.455235
100	S	0.513201	0.026951	0.535534
101	N	0.522956	0.0465	0.332935
102	C	0.512564	0.025677	0.18835
103	S	0.54864	0.097971	0.037087
104	C	0.586495	0.173831	0.033857
105	H	0.618197	0.237354	0.745473
106	H	0.557442	0.115606	0.535572
107	H	0.527413	0.055432	0.594857
108	H	0.50362	0.007759	0.716129
109	H	0.47759	0.955599	0.830705
110	H	0.467183	0.93477	0.516414
111	H	0.436859	0.873999	0.528907
112	H	0.419661	0.8395	0.858589
113	H	0.378707	0.757435	0.22983
114	H	0.581258	0.163339	0.174874
115	C	0.79176	0.396268	0
116	C	0.784089	0.392458	0.809953
117	S	0.817239	0.408933	0.670623
118	C	0.842166	0.421318	0.865838
119	C	0.876266	0.438265	0.843994
120	C	0.893669	0.446913	0.67724
121	C	0.926951	0.463453	0.710644
122	C	0.935073	0.467488	0.902781
123	C	0.967173	0.48344	0.987763
124	C	0.994465	0.497002	0.871083
125	C	0.02596	0.512653	0.939922
126	C	0.034457	0.516876	0.135162
127	C	0.067557	0.533324	0.204358
128	C	0.079621	0.539312	0.388287
129	C	0.113347	0.556073	0.395925
130	C	0.127192	0.562961	0.217427
131	C	0.160594	0.579562	0.170394
132	C	0.174454	0.586452	0.990798
133	C	0.207916	0.603082	0
134	C	0.219375	0.608775	0.182935
135	S	0.189292	0.593822	0.345695
136	S	0.098582	0.54875	0.044223
137	C	0.008068	0.503763	0.263037
138	N	0.009137	0.504295	0.455235
139	S	0.972559	0.486119	0.535534
140	N	0.95289	0.476344	0.332935
141	C	0.973841	0.486754	0.18835
142	S	0.901104	0.450607	0.037087
143	C	0.824781	0.412678	0.033857
144	H	0.760869	0.38092	0.745473
145	H	0.883362	0.441792	0.535572
146	H	0.943904	0.471878	0.594857
147	H	0.991869	0.495711	0.716129
148	H	0.044347	0.521789	0.830705
149	H	0.065303	0.53219	0.516414
150	H	0.126446	0.562577	0.528907
151	H	0.161156	0.579845	0.858589
152	H	0.243723	0.620875	0.22983
153	H	0.835337	0.417922	0.174874
