data_C78H36N12O6S6_2023-05-29_03:06:19
#******************************************
#
# CIF file created by Zeo++
# Zeo++ is an open source package to
# analyze microporous materials
#
#*******************************************

_cell_length_a		43.4216   
_cell_length_b		43.7201   
_cell_length_c		7   
_cell_angle_alpha		90   
_cell_angle_beta		90   
_cell_angle_gamma		119.702   

_symmetry_space_group_name_H-M		'P1'
_symmetry_Int_Tables_number		1
_symmetry_cell_setting		Monoclinic

loop_
_symmetry_equiv_pos_as_xyz
'+x,+y,+z'

loop_
_atom_site_label
_atom_site_type_symbol
_atom_site_fract_x
_atom_site_fract_y
_atom_site_fract_z
1	C	0.369021	0.674118	0.999995
2	O	0.400311	0.679597	0.999991
3	C	0.340768	0.637502	0.999998
4	C	0.346288	0.610513	0
5	N	0.381313	0.616825	0
6	C	0.304583	0.631003	3e-06
7	O	0.27919	0.599444	5e-06
8	C	0.295861	0.659163	6e-06
9	C	0.262562	0.652367	5e-06
10	N	0.235071	0.616461	0
11	C	0.325475	0.695486	4e-06
12	O	0.318542	0.719837	7e-06
13	C	0.362242	0.703617	0.999999
14	C	0.388347	0.736754	0.999998
15	N	0.383065	0.766169	0
16	H	0.324658	0.58424	1e-06
17	H	0.255517	0.672537	8e-06
18	H	0.41478	0.741485	0.999997
19	C	0.630979	0.325882	0.999995
20	O	0.599689	0.320403	0.999991
21	C	0.659232	0.362498	0.999998
22	C	0.653712	0.389487	0
23	N	0.618687	0.383175	0
24	C	0.695417	0.368997	3e-06
25	O	0.72081	0.400556	5e-06
26	C	0.704139	0.340837	6e-06
27	C	0.737438	0.347633	5e-06
28	N	0.764929	0.383539	0
29	C	0.674525	0.304514	4e-06
30	O	0.681458	0.280163	7e-06
31	C	0.637758	0.296383	0.999999
32	C	0.611653	0.263246	0.999998
33	N	0.616935	0.233831	0
34	H	0.675342	0.41576	1e-06
35	H	0.744483	0.327463	8e-06
36	H	0.58522	0.258515	0.999997
37	C	0.402715	0.595759	0
38	C	0.402368	0.596117	0.804588
39	S	0.423509	0.575319	0.71263
40	C	0.433398	0.565565	0.935822
41	C	0.453098	0.546174	0.957409
42	C	0.464947	0.534512	0.804614
43	N	0.483051	0.516691	0.819846
44	C	0.490786	0.509075	0.994704
45	C	0.479862	0.519827	0.159288
46	C	0.461138	0.538259	0.137769
47	C	0.487492	0.512315	0.341678
48	C	0.505951	0.494145	0.362506
49	C	0.516987	0.483283	0.201217
50	C	0.535721	0.464842	0.222159
51	C	0.547108	0.453634	0.063746
52	C	0.566872	0.43418	0.077237
53	C	0.579456	0.421792	0.931133
54	C	0.597285	0.404241	0
55	C	0.598372	0.403171	0.195107
56	S	0.5776	0.42362	0.296028
57	C	0.538499	0.462111	0.887992
58	N	0.520516	0.479813	0.862112
59	C	0.509527	0.490628	0.015852
60	C	0.42027	0.578473	0.076405
61	H	0.390868	0.607445	0.710974
62	H	0.460437	0.538952	0.657069
63	H	0.452896	0.546371	0.26568
64	H	0.479135	0.52054	0.468947
65	H	0.511645	0.488537	0.505579
66	H	0.541222	0.459425	0.365955
67	H	0.576074	0.425121	0.780715
68	H	0.610223	0.391506	0.283637
69	H	0.545851	0.454876	0.754167
70	H	0.423086	0.575687	0.228049
71	C	0.404084	0.808301	0
72	C	0.403727	0.807601	0.804588
73	S	0.424479	0.849209	0.71263
74	C	0.434211	0.868697	0.935822
75	C	0.453559	0.907478	0.957409
76	C	0.465195	0.930802	0.804614
77	N	0.482977	0.966444	0.819846
78	C	0.490576	0.981674	0.994704
79	C	0.479848	0.96017	0.159288
80	C	0.461457	0.923307	0.137769
81	C	0.487343	0.975192	0.341678
82	C	0.505473	0.011531	0.362506
83	C	0.516311	0.033255	0.201217
84	C	0.534711	0.070137	0.222159
85	C	0.545894	0.092553	0.063746
86	C	0.565305	0.131461	0.077237
87	C	0.577666	0.156235	0.931133
88	C	0.595177	0.191336	0
89	C	0.596245	0.193475	0.195107
90	S	0.575842	0.152581	0.296028
91	C	0.537435	0.075602	0.887992
92	N	0.519773	0.0402	0.862112
93	C	0.508982	0.018568	0.015852
94	C	0.421332	0.842866	0.076405
95	H	0.392424	0.784954	0.710974
96	H	0.460766	0.921925	0.657069
97	H	0.453363	0.907082	0.26568
98	H	0.479137	0.958741	0.468947
99	H	0.511068	0.022744	0.505579
100	H	0.540116	0.080969	0.365955
101	H	0.574344	0.149578	0.780715
102	H	0.607884	0.216806	0.283637
103	H	0.544654	0.090074	0.754167
104	H	0.424112	0.848424	0.228049
105	C	0.19265	0.595395	0
106	C	0.193354	0.595736	0.804588
107	S	0.151461	0.574926	0.71263
108	C	0.13184	0.565193	0.935822
109	C	0.092792	0.545802	0.957409
110	C	0.069308	0.534139	0.804614
111	N	0.033422	0.516319	0.819846
112	C	0.018087	0.508705	0.994704
113	C	0.039739	0.519458	0.159288
114	C	0.076855	0.537888	0.137769
115	C	0.024614	0.511947	0.341678
116	C	0.988025	0.493778	0.362506
117	C	0.966152	0.482916	0.201217
118	C	0.929017	0.464475	0.222159
119	C	0.906447	0.453267	0.063746
120	C	0.867273	0.433813	0.077237
121	C	0.842328	0.421427	0.931133
122	C	0.806987	0.403877	0
123	C	0.804833	0.402808	0.195107
124	S	0.846008	0.423254	0.296028
125	C	0.923515	0.461741	0.887992
126	N	0.95916	0.479441	0.862112
127	C	0.980941	0.490258	0.015852
128	C	0.157848	0.578115	0.076405
129	H	0.216157	0.607055	0.710974
130	H	0.078247	0.538578	0.657069
131	H	0.093191	0.546001	0.26568
132	H	0.041178	0.520173	0.468947
133	H	0.976736	0.488173	0.505579
134	H	0.918111	0.459061	0.365955
135	H	0.849031	0.424755	0.780715
136	H	0.781342	0.391143	0.283637
137	H	0.908944	0.454504	0.754167
138	H	0.152251	0.575343	0.228049
