data_C66H30N6O6S12_2023-05-14_21:13:28
#******************************************
#
# CIF file created by Zeo++
# Zeo++ is an open source package to
# analyze microporous materials
#
#*******************************************

_cell_length_a		42.7411   
_cell_length_b		43.0396   
_cell_length_c		7   
_cell_angle_alpha		90   
_cell_angle_beta		90   
_cell_angle_gamma		119.697   

_symmetry_space_group_name_H-M		'P1'
_symmetry_Int_Tables_number		1
_symmetry_cell_setting		Monoclinic

loop_
_symmetry_equiv_pos_as_xyz
'+x,+y,+z'

loop_
_atom_site_label
_atom_site_type_symbol
_atom_site_fract_x
_atom_site_fract_y
_atom_site_fract_z
1	C	0.369589	0.674235	0.999995
2	O	0.401376	0.679801	0.999991
3	C	0.340889	0.637043	0.999998
4	C	0.3465	0.609628	0
5	N	0.382082	0.616039	0
6	C	0.304129	0.630441	3e-06
7	O	0.278335	0.598385	5e-06
8	C	0.295265	0.659044	6e-06
9	C	0.261437	0.652142	5e-06
10	N	0.233511	0.615669	0
11	C	0.325347	0.69594	4e-06
12	O	0.318301	0.720675	7e-06
13	C	0.362698	0.704199	0.999999
14	C	0.389216	0.737859	0.999998
15	N	0.383847	0.767737	0
16	H	0.324528	0.58294	1e-06
17	H	0.254278	0.67263	8e-06
18	H	0.416069	0.742665	0.999997
19	C	0.630411	0.325765	0.999995
20	O	0.598624	0.320199	0.999991
21	C	0.659111	0.362957	0.999998
22	C	0.6535	0.390372	0
23	N	0.617918	0.383961	0
24	C	0.695871	0.369559	3e-06
25	O	0.721665	0.401615	5e-06
26	C	0.704735	0.340956	6e-06
27	C	0.738563	0.347858	5e-06
28	N	0.766489	0.384331	0
29	C	0.674653	0.30406	4e-06
30	O	0.681699	0.279325	7e-06
31	C	0.637302	0.295801	0.999999
32	C	0.610784	0.262141	0.999998
33	N	0.616153	0.232263	0
34	H	0.675472	0.41706	1e-06
35	H	0.745722	0.32737	8e-06
36	H	0.583931	0.257335	0.999997
37	C	0.596174	0.405359	0
38	C	0.589948	0.411488	0.184281
39	C	0.57054	0.430587	0.189469
40	C	0.562681	0.438318	0.009178
41	C	0.543519	0.457174	0.960387
42	C	0.535708	0.464859	0.780757
43	C	0.516313	0.483944	0.786325
44	C	0.509442	0.490708	0.970166
45	C	0.490557	0.509291	0.029838
46	C	0.483685	0.516055	0.213678
47	C	0.464291	0.53514	0.219246
48	C	0.45648	0.542825	0.039616
49	C	0.437318	0.561682	0.990824
50	C	0.429461	0.569413	0.810533
51	C	0.410052	0.588512	0.81572
52	C	0.403826	0.594641	0
53	S	0.420656	0.578081	0.164236
54	S	0.473081	0.526488	0.867236
55	S	0.526918	0.473511	0.132767
56	S	0.579344	0.421918	0.835765
57	H	0.598609	0.402967	0.309369
58	H	0.562825	0.438181	0.321311
59	H	0.543389	0.457299	0.648712
60	H	0.507958	0.492165	0.658888
61	H	0.49204	0.507833	0.341116
62	H	0.456609	0.542699	0.351291
63	H	0.437176	0.56182	0.678691
64	H	0.401392	0.597034	0.690631
65	C	0.594053	0.189097	0
66	C	0.587938	0.176842	0.184281
67	C	0.568882	0.138644	0.189469
68	C	0.561168	0.12318	0.009178
69	C	0.542354	0.085467	0.960387
70	C	0.534687	0.070095	0.780757
71	C	0.515645	0.031924	0.786325
72	C	0.508896	0.018399	0.970166
73	C	0.490355	0.981232	0.029838
74	C	0.483607	0.967706	0.213678
75	C	0.464564	0.929536	0.219246
76	C	0.456896	0.914164	0.039616
77	C	0.438082	0.87645	0.990824
78	C	0.430368	0.860987	0.810533
79	C	0.411312	0.822789	0.81572
80	C	0.405197	0.810533	0
81	S	0.42172	0.843654	0.164236
82	S	0.473196	0.946837	0.867236
83	S	0.526054	0.052793	0.132767
84	S	0.577531	0.155976	0.835765
85	H	0.59644	0.193886	0.309369
86	H	0.561305	0.123458	0.321311
87	H	0.54223	0.085214	0.648712
88	H	0.507442	0.015481	0.658888
89	H	0.491809	0.984149	0.341116
90	H	0.457022	0.914416	0.351291
91	H	0.437945	0.876173	0.678691
92	H	0.40281	0.805745	0.690631
93	C	0.809214	0.404989	0
94	C	0.821555	0.411115	0.184281
95	C	0.860019	0.430215	0.189469
96	C	0.875591	0.437948	0.009178
97	C	0.913567	0.456805	0.960387
98	C	0.929046	0.464491	0.780757
99	C	0.967483	0.483577	0.786325
100	C	0.981103	0.490339	0.970166
101	C	0.018529	0.508922	0.029838
102	C	0.032149	0.515685	0.213678
103	C	0.070585	0.53477	0.219246
104	C	0.086064	0.542456	0.039616
105	C	0.124041	0.561313	0.990824
106	C	0.139612	0.569046	0.810533
107	C	0.178076	0.588145	0.81572
108	C	0.190417	0.594271	0
109	S	0.157065	0.57771	0.164236
110	S	0.053163	0.52612	0.867236
111	S	0.946468	0.473141	0.132767
112	S	0.842566	0.421551	0.835765
113	H	0.804392	0.402593	0.309369
114	H	0.875311	0.437807	0.321311
115	H	0.913822	0.456932	0.648712
116	H	0.98404	0.491799	0.658888
117	H	0.015591	0.507463	0.341116
118	H	0.08581	0.54233	0.351291
119	H	0.12432	0.561453	0.678691
120	H	0.195239	0.596667	0.690631
