data_C84H36N6O6S18_2023-05-11_03:08:07
#******************************************
#
# CIF file created by Zeo++
# Zeo++ is an open source package to
# analyze microporous materials
#
#*******************************************

_cell_length_a		48.7091   
_cell_length_b		49.0076   
_cell_length_c		7   
_cell_angle_alpha		90   
_cell_angle_beta		90   
_cell_angle_gamma		119.734   

_symmetry_space_group_name_H-M		'P1'
_symmetry_Int_Tables_number		1
_symmetry_cell_setting		Monoclinic

loop_
_symmetry_equiv_pos_as_xyz
'+x,+y,+z'

loop_
_atom_site_label
_atom_site_type_symbol
_atom_site_fract_x
_atom_site_fract_y
_atom_site_fract_z
1	C	0.365152	0.673316	0.999995
2	O	0.393048	0.678206	0.999991
3	C	0.339944	0.640641	0.999998
4	C	0.344849	0.616556	0
5	N	0.376076	0.622188	0
6	C	0.307683	0.634841	3e-06
7	O	0.285029	0.606678	5e-06
8	C	0.299924	0.65997	6e-06
9	C	0.270237	0.653906	5e-06
10	N	0.245709	0.621863	0
11	C	0.326345	0.692385	4e-06
12	O	0.320178	0.714116	7e-06
13	C	0.359125	0.699641	0.999999
14	C	0.382416	0.729212	0.999998
15	N	0.377725	0.755462	0
16	H	0.325552	0.593109	1e-06
17	H	0.263968	0.671905	8e-06
18	H	0.405982	0.733435	0.999997
19	C	0.634848	0.326684	0.999995
20	O	0.606952	0.321794	0.999991
21	C	0.660056	0.359359	0.999998
22	C	0.655151	0.383444	0
23	N	0.623924	0.377812	0
24	C	0.692317	0.365159	3e-06
25	O	0.714971	0.393322	5e-06
26	C	0.700076	0.34003	6e-06
27	C	0.729763	0.346094	5e-06
28	N	0.754291	0.378137	0
29	C	0.673655	0.307615	4e-06
30	O	0.679822	0.285884	7e-06
31	C	0.640875	0.300359	0.999999
32	C	0.617584	0.270788	0.999998
33	N	0.622275	0.244538	0
34	H	0.674448	0.406891	1e-06
35	H	0.736032	0.328095	8e-06
36	H	0.594018	0.266565	0.999997
37	C	0.395142	0.603389	0
38	C	0.383109	0.615253	0.132555
39	S	0.390584	0.607883	0.360018
40	C	0.409854	0.588883	0.279369
41	C	0.424931	0.574018	0.413922
42	C	0.42395	0.574986	0.61009
43	S	0.442289	0.556905	0.715575
44	C	0.45206	0.54727	0.499342
45	C	0.469366	0.530207	0.487645
46	C	0.480079	0.519643	0.638043
47	C	0.496195	0.503754	0.572997
48	C	0.497471	0.502496	0.379352
49	C	0.513588	0.486606	0.314338
50	C	0.524312	0.476032	0.464702
51	C	0.5416	0.458986	0.447374
52	C	0.550319	0.450388	0.279037
53	C	0.567167	0.433776	0.308559
54	C	0.580104	0.421019	0.145159
55	C	0.596362	0.404989	0.175121
56	C	0.604858	0.396611	0
57	C	0.595165	0.406166	0.842259
58	S	0.575495	0.425561	0.906754
59	C	0.57088	0.430118	0.499906
60	S	0.554269	0.446497	0.64068
61	S	0.514764	0.485444	0.683138
62	S	0.478901	0.520807	0.269044
63	C	0.441122	0.558055	0.350811
64	C	0.410579	0.588168	0.08237
65	H	0.370382	0.627801	0.108469
66	H	0.413403	0.585385	0.698788
67	H	0.476822	0.522853	0.787738
68	H	0.51685	0.483391	0.164753
69	H	0.544838	0.45579	0.139045
70	H	0.601913	0.399518	0.314661
71	H	0.59854	0.402837	0.693194
72	H	0.582488	0.418673	0.566684
73	H	0.444595	0.55463	0.201908
74	H	0.421559	0.577342	0.001297
75	C	0.396487	0.79306	0
76	C	0.384645	0.769331	0.132555
77	S	0.392001	0.784072	0.360018
78	C	0.410963	0.822071	0.279369
79	C	0.425799	0.851803	0.413922
80	C	0.424834	0.849868	0.61009
81	S	0.442879	0.88603	0.715575
82	C	0.452495	0.9053	0.499342
83	C	0.469524	0.939426	0.487645
84	C	0.480067	0.960553	0.638043
85	C	0.495924	0.992332	0.572997
86	C	0.49718	0.994848	0.379352
87	C	0.513038	0.026629	0.314338
88	C	0.523592	0.047777	0.464702
89	C	0.540604	0.081868	0.447374
90	C	0.549185	0.099064	0.279037
91	C	0.565764	0.132288	0.308559
92	C	0.578496	0.1578	0.145159
93	C	0.594494	0.18986	0.175121
94	C	0.602856	0.206615	0
95	C	0.59332	0.187503	0.842259
96	S	0.573963	0.148714	0.906754
97	C	0.569415	0.139607	0.499906
98	S	0.553069	0.10685	0.64068
99	S	0.514199	0.028952	0.683138
100	S	0.478905	0.958228	0.269044
101	C	0.441731	0.88373	0.350811
102	C	0.411677	0.823502	0.08237
103	H	0.372122	0.744235	0.108469
104	H	0.414455	0.829069	0.698788
105	H	0.476863	0.954132	0.787738
106	H	0.516247	0.033061	0.164753
107	H	0.543794	0.088258	0.139045
108	H	0.599955	0.200806	0.314661
109	H	0.596642	0.19416	0.693194
110	H	0.580837	0.162496	0.566684
111	H	0.445149	0.89058	0.201908
112	H	0.422481	0.845154	0.001297
113	C	0.20788	0.603064	0
114	C	0.231755	0.614929	0.132555
115	S	0.216924	0.607558	0.360018
116	C	0.178692	0.588558	0.279369
117	C	0.148778	0.573692	0.413922
118	C	0.150725	0.574659	0.61009
119	S	0.114342	0.556578	0.715575
120	C	0.094954	0.546943	0.499342
121	C	0.060619	0.52988	0.487645
122	C	0.039363	0.519317	0.638043
123	C	0.00739	0.503427	0.572997
124	C	0.004858	0.502168	0.379352
125	C	0.972883	0.486277	0.314338
126	C	0.951606	0.475704	0.464702
127	C	0.917305	0.458658	0.447374
128	C	0.900005	0.450061	0.279037
129	C	0.866578	0.433449	0.308559
130	C	0.84091	0.420694	0.145159
131	C	0.808653	0.404663	0.175121
132	C	0.791796	0.396286	0
133	C	0.811024	0.405843	0.842259
134	S	0.850051	0.425238	0.906754
135	C	0.859214	0.429788	0.499906
136	S	0.892171	0.446166	0.64068
137	S	0.970546	0.485118	0.683138
138	S	0.041702	0.520478	0.269044
139	C	0.116656	0.557728	0.350811
140	C	0.177252	0.587843	0.08237
141	H	0.257004	0.627477	0.108469
142	H	0.171651	0.585059	0.698788
143	H	0.045823	0.522528	0.787738
144	H	0.966412	0.483061	0.164753
145	H	0.910877	0.455465	0.139045
146	H	0.797641	0.39919	0.314661
147	H	0.804327	0.402516	0.693194
148	H	0.836184	0.418343	0.566684
149	H	0.109765	0.554304	0.201908
150	H	0.155468	0.577017	0.001297
