data_C96H48N6O6S12_2023-05-14_23:15:52
#******************************************
#
# CIF file created by Zeo++
# Zeo++ is an open source package to
# analyze microporous materials
#
#*******************************************

_cell_length_a		52.2048   
_cell_length_b		52.5033   
_cell_length_c		7   
_cell_angle_alpha		90   
_cell_angle_beta		90   
_cell_angle_gamma		119.752   

_symmetry_space_group_name_H-M		'P1'
_symmetry_Int_Tables_number		1
_symmetry_cell_setting		Monoclinic

loop_
_symmetry_equiv_pos_as_xyz
'+x,+y,+z'

loop_
_atom_site_label
_atom_site_type_symbol
_atom_site_fract_x
_atom_site_fract_y
_atom_site_fract_z
1	C	0.363023	0.672874	0.999995
2	O	0.389053	0.677439	0.999991
3	C	0.339493	0.642369	0.999998
4	C	0.344062	0.619884	0
5	N	0.373199	0.625142	0
6	C	0.30939	0.636955	3e-06
7	O	0.288243	0.610662	5e-06
8	C	0.302159	0.660415	6e-06
9	C	0.274457	0.654754	5e-06
10	N	0.251561	0.624839	0
11	C	0.326822	0.690677	4e-06
12	O	0.321075	0.710964	7e-06
13	C	0.357409	0.697451	0.999999
14	C	0.37915	0.725058	0.999998
15	N	0.374782	0.749565	0
16	H	0.326048	0.597995	1e-06
17	H	0.268614	0.671558	8e-06
18	H	0.40114	0.729	0.999997
19	C	0.636977	0.327126	0.999995
20	O	0.610947	0.322561	0.999991
21	C	0.660507	0.357631	0.999998
22	C	0.655938	0.380116	0
23	N	0.626801	0.374858	0
24	C	0.69061	0.363045	3e-06
25	O	0.711757	0.389338	5e-06
26	C	0.697841	0.339585	6e-06
27	C	0.725543	0.345246	5e-06
28	N	0.748439	0.375161	0
29	C	0.673178	0.309323	4e-06
30	O	0.678925	0.289036	7e-06
31	C	0.642591	0.302549	0.999999
32	C	0.62085	0.274942	0.999998
33	N	0.625218	0.250435	0
34	H	0.673952	0.402005	1e-06
35	H	0.731386	0.328442	8e-06
36	H	0.59886	0.271	0.999997
37	C	0.609018	0.392409	0
38	C	0.61455	0.386947	0.182167
39	C	0.602808	0.398535	0.319515
40	C	0.588763	0.412397	0.237319
41	C	0.574621	0.426354	0.337244
42	C	0.57251	0.428437	0.532742
43	C	0.557194	0.443553	0.58588
44	C	0.547606	0.453016	0.431039
45	C	0.531093	0.469313	0.429027
46	C	0.523108	0.477195	0.601271
47	C	0.507541	0.492558	0.60395
48	C	0.499371	0.50062	0.433702
49	C	0.483701	0.516084	0.433636
50	C	0.475362	0.524313	0.263538
51	C	0.458856	0.540602	0.270604
52	C	0.449546	0.549785	0.428257
53	C	0.434135	0.564995	0.379818
54	C	0.431682	0.567422	0.185054
55	C	0.41758	0.581341	0.084601
56	C	0.415108	0.583783	0.888855
57	C	0.399698	0.598992	0.839699
58	C	0.390982	0.607591	0
59	S	0.400858	0.597842	0.205306
60	S	0.448317	0.55101	0.065489
61	C	0.483347	0.516431	0.091337
62	C	0.498917	0.501066	0.088906
63	C	0.507086	0.493005	0.259139
64	C	0.522756	0.47754	0.258969
65	S	0.557775	0.44298	0.222946
66	S	0.590254	0.410928	0.991639
67	H	0.626275	0.375374	0.217067
68	H	0.604737	0.396629	0.472219
69	H	0.581475	0.419589	0.635907
70	H	0.553578	0.44712	0.733351
71	H	0.5288	0.471577	0.738144
72	H	0.501875	0.49815	0.741258
73	H	0.478059	0.521654	0.570929
74	H	0.453407	0.545969	0.574676
75	H	0.425356	0.573654	0.485767
76	H	0.423919	0.575089	0.78332
77	H	0.395456	0.60318	0.694931
78	H	0.47771	0.521994	0.953991
79	H	0.504589	0.495467	0.951594
80	H	0.52835	0.472018	0.121222
81	C	0.607086	0.215031	0
82	C	0.612538	0.225952	0.182167
83	C	0.600972	0.202776	0.319515
84	C	0.587134	0.175053	0.237319
85	C	0.573203	0.147139	0.337244
86	C	0.571124	0.142972	0.532742
87	C	0.556036	0.112741	0.58588
88	C	0.546591	0.093816	0.431039
89	C	0.530324	0.061222	0.429027
90	C	0.522457	0.045459	0.601271
91	C	0.507122	0.014733	0.60395
92	C	0.499075	0.998608	0.433702
93	C	0.483639	0.967679	0.433636
94	C	0.475425	0.95122	0.263538
95	C	0.459166	0.918641	0.270604
96	C	0.45	0.900269	0.428257
97	C	0.434818	0.869851	0.379818
98	C	0.432396	0.865003	0.185054
99	C	0.418502	0.837165	0.084601
100	C	0.416064	0.832284	0.888855
101	C	0.400884	0.801867	0.839699
102	C	0.3923	0.784666	0
103	S	0.402032	0.804162	0.205306
104	S	0.448777	0.897832	0.065489
105	C	0.483292	0.966983	0.091337
106	C	0.498629	0.997714	0.088906
107	C	0.506675	0.013837	0.259139
108	C	0.522112	0.044766	0.258969
109	S	0.556608	0.113888	0.222946
110	S	0.588601	0.177994	0.991639
111	H	0.624089	0.249097	0.217067
112	H	0.602873	0.206585	0.472219
113	H	0.579956	0.160669	0.635907
114	H	0.552475	0.105605	0.733351
115	H	0.528064	0.056695	0.738144
116	H	0.50154	0.003549	0.741258
117	H	0.478079	0.956541	0.570929
118	H	0.453809	0.907896	0.574676
119	H	0.426175	0.852527	0.485767
120	H	0.424743	0.849674	0.78332
121	H	0.396703	0.793492	0.694931
122	H	0.47774	0.955856	0.953991
123	H	0.504218	0.008911	0.951594
124	H	0.527623	0.055809	0.121222
125	C	0.783438	0.392105	0
126	C	0.772455	0.386646	0.182167
127	C	0.795763	0.398234	0.319515
128	C	0.823645	0.412095	0.237319
129	C	0.851718	0.426052	0.337244
130	C	0.855908	0.428136	0.532742
131	C	0.886312	0.443251	0.58588
132	C	0.905345	0.452714	0.431039
133	C	0.938125	0.46901	0.429027
134	C	0.953978	0.476891	0.601271
135	C	0.98488	0.492255	0.60395
136	C	0.001096	0.500317	0.433702
137	C	0.032202	0.515782	0.433636
138	C	0.048754	0.524012	0.263538
139	C	0.08152	0.540302	0.270604
140	C	0.099996	0.549491	0.428257
141	C	0.130589	0.5647	0.379818
142	C	0.135464	0.567121	0.185054
143	C	0.16346	0.581039	0.084601
144	C	0.16837	0.583478	0.888855
145	C	0.19896	0.598686	0.839699
146	C	0.21626	0.607288	0
147	S	0.196652	0.597541	0.205306
148	S	0.102448	0.550703	0.065489
149	C	0.032902	0.516131	0.091337
150	C	0.001995	0.500765	0.088906
151	C	0.985781	0.492704	0.259139
152	C	0.954674	0.477239	0.258969
153	S	0.885158	0.442677	0.222946
154	S	0.820686	0.410623	0.991639
155	H	0.749178	0.375074	0.217067
156	H	0.791932	0.39633	0.472219
157	H	0.838111	0.419288	0.635907
158	H	0.893488	0.446819	0.733351
159	H	0.942678	0.471274	0.738144
160	H	0.996127	0.497847	0.741258
161	H	0.043403	0.521351	0.570929
162	H	0.092326	0.54568	0.574676
163	H	0.148011	0.573364	0.485767
164	H	0.15088	0.574782	0.78332
165	H	0.207383	0.602873	0.694931
166	H	0.044092	0.521695	0.953991
167	H	0.990734	0.495167	0.951594
168	H	0.943568	0.471718	0.121222
