data_C66H30N6O6S12_2023-05-11_21:55:55
#******************************************
#
# CIF file created by Zeo++
# Zeo++ is an open source package to
# analyze microporous materials
#
#*******************************************

_cell_length_a		41.6012   
_cell_length_b		41.8997   
_cell_length_c		7   
_cell_angle_alpha		90   
_cell_angle_beta		90   
_cell_angle_gamma		119.689   

_symmetry_space_group_name_H-M		'P1'
_symmetry_Int_Tables_number		1
_symmetry_cell_setting		Monoclinic

loop_
_symmetry_equiv_pos_as_xyz
'+x,+y,+z'

loop_
_atom_site_label
_atom_site_type_symbol
_atom_site_fract_x
_atom_site_fract_y
_atom_site_fract_z
1	C	0.370581	0.674441	0.999995
2	O	0.403238	0.680157	0.999991
3	C	0.341101	0.636239	0.999998
4	C	0.34687	0.608081	0
5	N	0.383426	0.614666	0
6	C	0.303335	0.629459	3e-06
7	O	0.276839	0.596533	5e-06
8	C	0.294223	0.658838	6e-06
9	C	0.259469	0.651748	5e-06
10	N	0.230785	0.614286	0
11	C	0.325123	0.696734	4e-06
12	O	0.31788	0.72214	7e-06
13	C	0.363496	0.705217	0.999999
14	C	0.390735	0.739789	0.999998
15	N	0.385214	0.770478	0
16	H	0.324301	0.58067	1e-06
17	H	0.25211	0.672791	8e-06
18	H	0.418323	0.744726	0.999997
19	C	0.629419	0.325559	0.999995
20	O	0.596762	0.319843	0.999991
21	C	0.658899	0.363761	0.999998
22	C	0.65313	0.391919	0
23	N	0.616574	0.385334	0
24	C	0.696665	0.370541	3e-06
25	O	0.723161	0.403467	5e-06
26	C	0.705777	0.341162	6e-06
27	C	0.740531	0.348252	5e-06
28	N	0.769215	0.385714	0
29	C	0.674877	0.303266	4e-06
30	O	0.68212	0.27786	7e-06
31	C	0.636504	0.294783	0.999999
32	C	0.609265	0.260211	0.999998
33	N	0.614786	0.229522	0
34	H	0.675699	0.41933	1e-06
35	H	0.74789	0.327209	8e-06
36	H	0.581677	0.255274	0.999997
37	C	0.40577	0.592688	0
38	C	0.406271	0.592195	0.195811
39	C	0.425073	0.5737	0.264399
40	C	0.437937	0.561047	0.117337
41	C	0.459792	0.539551	0.14457
42	C	0.468343	0.531139	0.32052
43	S	0.492124	0.507748	0.302446
44	C	0.491515	0.508347	0.05668
45	C	0.508486	0.491654	0.943322
46	C	0.526824	0.473615	0.006835
47	C	0.540209	0.46045	0.855431
48	C	0.562063	0.438953	0.882664
49	C	0.574927	0.4263	0.735602
50	C	0.593729	0.407805	0.804189
51	C	0.59423	0.407312	0
52	S	0.572773	0.428418	0.101364
53	C	0.531658	0.468862	0.679482
54	S	0.507877	0.492253	0.697556
55	C	0.473176	0.526386	0.993167
56	S	0.427227	0.571582	0.898637
57	H	0.394001	0.604264	0.286262
58	H	0.428696	0.570136	0.414528
59	H	0.461992	0.537386	0.460516
60	H	0.530569	0.469932	0.156747
61	H	0.571304	0.429864	0.585472
62	H	0.605999	0.395736	0.713737
63	H	0.538009	0.462616	0.539486
64	H	0.469432	0.530069	0.843255
65	C	0.407142	0.814435	0
66	C	0.407633	0.815421	0.195811
67	C	0.426085	0.852409	0.264399
68	C	0.438709	0.877716	0.117337
69	C	0.460155	0.920709	0.14457
70	C	0.468547	0.937532	0.32052
71	S	0.491885	0.984316	0.302446
72	C	0.491287	0.983117	0.05668
73	C	0.507942	0.016504	0.943322
74	C	0.525939	0.052581	0.006835
75	C	0.539073	0.078911	0.855431
76	C	0.56052	0.121904	0.882664
77	C	0.573144	0.147211	0.735602
78	C	0.591596	0.1842	0.804189
79	C	0.592088	0.185186	0
80	S	0.571031	0.142974	0.101364
81	C	0.530681	0.062088	0.679482
82	S	0.507344	0.015305	0.697556
83	C	0.47329	0.94704	0.993167
84	S	0.428198	0.856646	0.898637
85	H	0.395592	0.791282	0.286262
86	H	0.429641	0.859537	0.414528
87	H	0.462316	0.925039	0.460516
88	H	0.529613	0.059947	0.156747
89	H	0.569588	0.140083	0.585472
90	H	0.603637	0.208338	0.713737
91	H	0.536912	0.074581	0.539486
92	H	0.469616	0.939674	0.843255
93	C	0.186513	0.592308	0
94	C	0.185521	0.591815	0.195811
95	C	0.148267	0.573321	0.264399
96	C	0.122779	0.560667	0.117337
97	C	0.079478	0.53917	0.14457
98	C	0.062535	0.530759	0.32052
99	S	0.015416	0.507367	0.302446
100	C	0.016623	0.507966	0.05668
101	C	0.982998	0.491273	0.943322
102	C	0.946662	0.473235	0.006835
103	C	0.920143	0.460069	0.855431
104	C	0.876842	0.438573	0.882664
105	C	0.851354	0.425919	0.735602
106	C	0.814101	0.407425	0.804189
107	C	0.813108	0.406933	0
108	S	0.855621	0.428038	0.101364
109	C	0.937087	0.46848	0.679482
110	S	0.984205	0.491872	0.697556
111	C	0.052959	0.526005	0.993167
112	S	0.144	0.571202	0.898637
113	H	0.209832	0.603884	0.286262
114	H	0.141088	0.569757	0.414528
115	H	0.075117	0.537006	0.460516
116	H	0.939243	0.469552	0.156747
117	H	0.858533	0.429483	0.585472
118	H	0.789789	0.395356	0.713737
119	H	0.924504	0.462233	0.539486
120	H	0.060378	0.529688	0.843255
