data_C96H48N6O6S12_2023-05-27_12:31:03
#******************************************
#
# CIF file created by Zeo++
# Zeo++ is an open source package to
# analyze microporous materials
#
#*******************************************

_cell_length_a		53.3516   
_cell_length_b		53.65   
_cell_length_c		7   
_cell_angle_alpha		90   
_cell_angle_beta		90   
_cell_angle_gamma		119.757   

_symmetry_space_group_name_H-M		'P1'
_symmetry_Int_Tables_number		1
_symmetry_cell_setting		Monoclinic

loop_
_symmetry_equiv_pos_as_xyz
'+x,+y,+z'

loop_
_atom_site_label
_atom_site_type_symbol
_atom_site_fract_x
_atom_site_fract_y
_atom_site_fract_z
1	C	0.362386	0.672742	0.999995
2	O	0.387857	0.67721	0.999991
3	C	0.339358	0.642887	0.999998
4	C	0.343826	0.620881	0
5	N	0.372338	0.626027	0
6	C	0.309902	0.637588	3e-06
7	O	0.289206	0.611856	5e-06
8	C	0.302829	0.660548	6e-06
9	C	0.275722	0.655008	5e-06
10	N	0.253314	0.625731	0
11	C	0.326964	0.690165	4e-06
12	O	0.321343	0.71002	7e-06
13	C	0.356895	0.696794	0.999999
14	C	0.378172	0.723813	0.999998
15	N	0.3739	0.747797	0
16	H	0.326198	0.599459	1e-06
17	H	0.270006	0.671453	8e-06
18	H	0.399689	0.727671	0.999997
19	C	0.637614	0.327258	0.999995
20	O	0.612143	0.32279	0.999991
21	C	0.660642	0.357113	0.999998
22	C	0.656174	0.379119	0
23	N	0.627662	0.373973	0
24	C	0.690098	0.362412	3e-06
25	O	0.710794	0.388144	5e-06
26	C	0.697171	0.339452	6e-06
27	C	0.724278	0.344992	5e-06
28	N	0.746686	0.374269	0
29	C	0.673036	0.309835	4e-06
30	O	0.678657	0.28998	7e-06
31	C	0.643105	0.303206	0.999999
32	C	0.621828	0.276187	0.999998
33	N	0.6261	0.252203	0
34	H	0.673802	0.400541	1e-06
35	H	0.729994	0.328547	8e-06
36	H	0.600311	0.272329	0.999997
37	C	0.389737	0.608851	0
38	C	0.401667	0.597073	0.117802
39	C	0.414896	0.584014	0.01055
40	C	0.430672	0.56844	0.09882
41	C	0.433553	0.565595	0.291515
42	C	0.448803	0.550539	0.330057
43	C	0.457337	0.542116	0.166546
44	C	0.47344	0.526219	0.149168
45	C	0.480604	0.519146	0.972173
46	C	0.49581	0.504135	0.959989
47	C	0.504425	0.495631	0.124901
48	C	0.519738	0.480513	0.114924
49	C	0.528514	0.47185	0.279563
50	C	0.544658	0.455912	0.271309
51	C	0.554613	0.44608	0.420284
52	C	0.569405	0.431478	0.358124
53	C	0.570518	0.430384	0.162286
54	C	0.58538	0.415714	0.049914
55	C	0.586222	0.414886	0.852931
56	S	0.60386	0.397475	0.773275
57	C	0.610263	0.391149	0
58	C	0.599487	0.401785	0.135662
59	S	0.553849	0.446843	0.056648
60	C	0.521349	0.478924	0.456595
61	C	0.506146	0.493932	0.469015
62	C	0.497532	0.502436	0.304086
63	C	0.482219	0.517553	0.31384
64	S	0.446263	0.553049	0.967801
65	C	0.412273	0.586605	0.816292
66	S	0.394038	0.604606	0.764854
67	H	0.400942	0.597788	0.272077
68	H	0.425311	0.57373	0.401882
69	H	0.453139	0.546258	0.473803
70	H	0.474585	0.525088	0.838518
71	H	0.50084	0.499169	0.819267
72	H	0.52469	0.475623	0.973843
73	H	0.551606	0.449046	0.569785
74	H	0.578588	0.42241	0.454788
75	H	0.577452	0.423547	0.750081
76	H	0.601606	0.39969	0.287699
77	H	0.527418	0.472933	0.589756
78	H	0.50112	0.498895	0.609718
79	H	0.477215	0.522493	0.454507
80	H	0.420049	0.57893	0.700428
81	C	0.391045	0.78215	0
82	C	0.402802	0.805705	0.117802
83	C	0.415837	0.831824	0.01055
84	C	0.431383	0.862971	0.09882
85	C	0.434223	0.868661	0.291515
86	C	0.449252	0.898772	0.330057
87	C	0.45766	0.91562	0.166546
88	C	0.473528	0.947413	0.149168
89	C	0.480588	0.961558	0.972173
90	C	0.495572	0.99158	0.959989
91	C	0.504061	0.008589	0.124901
92	C	0.519151	0.038823	0.114924
93	C	0.5278	0.056151	0.279563
94	C	0.543709	0.088026	0.271309
95	C	0.553523	0.107686	0.420284
96	C	0.568098	0.136889	0.358124
97	C	0.56919	0.139082	0.162286
98	C	0.583834	0.168424	0.049914
99	C	0.58466	0.170083	0.852931
100	S	0.60204	0.204907	0.773275
101	C	0.608355	0.217554	0
102	C	0.597738	0.19628	0.135662
103	S	0.552761	0.106169	0.056648
104	C	0.520738	0.042003	0.456595
105	C	0.505757	0.011987	0.469015
106	C	0.497268	0.99498	0.304086
107	C	0.482178	0.964745	0.31384
108	S	0.446746	0.893754	0.967801
109	C	0.413251	0.826643	0.816292
110	S	0.395282	0.79064	0.764854
111	H	0.402088	0.804274	0.272077
112	H	0.426103	0.852389	0.401882
113	H	0.453525	0.907333	0.473803
114	H	0.474657	0.949674	0.838518
115	H	0.50053	0.001512	0.819267
116	H	0.524033	0.048603	0.973843
117	H	0.550562	0.101751	0.569785
118	H	0.57715	0.155024	0.454788
119	H	0.576015	0.152765	0.750081
120	H	0.599829	0.200467	0.287699
121	H	0.526718	0.053986	0.589756
122	H	0.500803	0.002063	0.609718
123	H	0.477247	0.954865	0.454507
124	H	0.420912	0.841995	0.700428
125	C	0.21877	0.608554	0
126	C	0.195083	0.596777	0.117802
127	C	0.168819	0.583717	0.01055
128	C	0.137497	0.568144	0.09882
129	C	0.131775	0.565299	0.291515
130	C	0.101496	0.550244	0.330057
131	C	0.084555	0.54182	0.166546
132	C	0.052584	0.525923	0.149168
133	C	0.03836	0.518851	0.972173
134	C	0.008169	0.50384	0.959989
135	C	0.991066	0.495335	0.124901
136	C	0.960663	0.480218	0.114924
137	C	0.943238	0.471554	0.279563
138	C	0.911185	0.455617	0.271309
139	C	0.891416	0.445789	0.420284
140	C	0.862049	0.431187	0.358124
141	C	0.859844	0.430088	0.162286
142	C	0.830338	0.415417	0.049914
143	C	0.828669	0.414585	0.852931
144	S	0.793652	0.397173	0.773275
145	C	0.780934	0.390852	0
146	C	0.802327	0.40149	0.135662
147	S	0.892941	0.446543	0.056648
148	C	0.957465	0.478628	0.456595
149	C	0.987648	0.493635	0.469015
150	C	0.004751	0.502139	0.304086
151	C	0.035154	0.517256	0.31384
152	S	0.106542	0.552752	0.967801
153	C	0.174028	0.586307	0.816292
154	S	0.210232	0.604308	0.764854
155	H	0.196522	0.597493	0.272077
156	H	0.148138	0.573435	0.401882
157	H	0.092888	0.545964	0.473803
158	H	0.05031	0.524793	0.838518
159	H	0.998182	0.498874	0.819267
160	H	0.950828	0.475329	0.973843
161	H	0.897384	0.448759	0.569785
162	H	0.843813	0.422121	0.454788
163	H	0.846085	0.423243	0.750081
164	H	0.798116	0.399398	0.287699
165	H	0.945415	0.472636	0.589756
166	H	0.997629	0.498598	0.609718
167	H	0.04509	0.522197	0.454507
168	H	0.158591	0.578631	0.700428
