data_C60H24N6O6S12_2023-05-29_23:59:01
#******************************************
#
# CIF file created by Zeo++
# Zeo++ is an open source package to
# analyze microporous materials
#
#*******************************************

_cell_length_a		39.1976   
_cell_length_b		39.4962   
_cell_length_c		7   
_cell_angle_alpha		90   
_cell_angle_beta		90   
_cell_angle_gamma		119.67   

_symmetry_space_group_name_H-M		'P1'
_symmetry_Int_Tables_number		1
_symmetry_cell_setting		Monoclinic

loop_
_symmetry_equiv_pos_as_xyz
'+x,+y,+z'

loop_
_atom_site_label
_atom_site_type_symbol
_atom_site_fract_x
_atom_site_fract_y
_atom_site_fract_z
1	C	0.372861	0.674912	0.999995
2	O	0.407519	0.680975	0.999991
3	C	0.34159	0.634394	0.999998
4	C	0.347724	0.604528	0
5	N	0.386519	0.611512	0
6	C	0.30151	0.627202	3e-06
7	O	0.273404	0.592279	5e-06
8	C	0.291828	0.658363	6e-06
9	C	0.254946	0.650843	5e-06
10	N	0.224518	0.611109	0
11	C	0.324608	0.698558	4e-06
12	O	0.31691	0.725505	7e-06
13	C	0.36533	0.707556	0.999999
14	C	0.394225	0.744225	0.999998
15	N	0.388353	0.776775	0
16	H	0.323782	0.575454	1e-06
17	H	0.247127	0.673163	8e-06
18	H	0.423503	0.749461	0.999997
19	C	0.627139	0.325088	0.999995
20	O	0.592481	0.319025	0.999991
21	C	0.65841	0.365606	0.999998
22	C	0.652276	0.395472	0
23	N	0.613481	0.388488	0
24	C	0.69849	0.372798	3e-06
25	O	0.726596	0.407721	5e-06
26	C	0.708172	0.341637	6e-06
27	C	0.745054	0.349157	5e-06
28	N	0.775482	0.388891	0
29	C	0.675392	0.301442	4e-06
30	O	0.68309	0.274495	7e-06
31	C	0.63467	0.292444	0.999999
32	C	0.605775	0.255775	0.999998
33	N	0.611647	0.223225	0
34	H	0.676218	0.424546	1e-06
35	H	0.752873	0.326837	8e-06
36	H	0.576497	0.250539	0.999997
37	C	0.589758	0.411799	0
38	C	0.570647	0.430578	0.067378
39	C	0.556599	0.444383	0.914402
40	C	0.533281	0.467297	0.939099
41	C	0.524027	0.476389	0.114537
42	C	0.502969	0.497082	0.093215
43	C	0.497031	0.502918	0.906785
44	C	0.475973	0.523611	0.885463
45	C	0.466719	0.532704	0.060902
46	C	0.443401	0.555617	0.085599
47	C	0.434132	0.564725	0.26154
48	S	0.408787	0.589629	0.241405
49	C	0.410242	0.588201	0
50	C	0.429353	0.569422	0.932622
51	S	0.482878	0.516825	0.249621
52	S	0.517122	0.483176	0.750379
53	C	0.565868	0.435275	0.73846
54	S	0.591212	0.410371	0.758595
55	H	0.56698	0.434181	0.217866
56	H	0.531496	0.469051	0.2513
57	H	0.468505	0.530949	0.748701
58	H	0.440773	0.5582	0.402124
59	H	0.43302	0.565819	0.782134
60	H	0.559227	0.441801	0.597876
61	C	0.587575	0.1762	0
62	C	0.568842	0.138642	0.067378
63	C	0.555071	0.111033	0.914402
64	C	0.532214	0.065206	0.939099
65	C	0.523144	0.04702	0.114537
66	C	0.502502	0.005634	0.093215
67	C	0.49668	0.993964	0.906785
68	C	0.476038	0.952578	0.885463
69	C	0.466968	0.934392	0.060902
70	C	0.44411	0.888564	0.085599
71	C	0.435025	0.870349	0.26154
72	S	0.410182	0.82054	0.241405
73	C	0.411607	0.823398	0
74	C	0.43034	0.860956	0.932622
75	S	0.482808	0.96615	0.249621
76	S	0.516374	0.033448	0.750379
77	C	0.564157	0.129249	0.73846
78	S	0.589	0.179058	0.758595
79	H	0.565248	0.131436	0.217866
80	H	0.530464	0.061697	0.2513
81	H	0.468718	0.937901	0.748701
82	H	0.441534	0.8834	0.402124
83	H	0.433934	0.868162	0.782134
84	H	0.557647	0.116198	0.597876
85	C	0.822057	0.411397	0
86	C	0.859901	0.430176	0.067378
87	C	0.887719	0.44398	0.914402
88	C	0.933895	0.466894	0.939099
89	C	0.952219	0.475987	0.114537
90	C	0.993919	0.496679	0.093215
91	C	0.005679	0.502515	0.906785
92	C	0.047379	0.523207	0.885463
93	C	0.065703	0.532301	0.060902
94	C	0.111879	0.555214	0.085599
95	C	0.130233	0.564322	0.26154
96	S	0.180421	0.589227	0.241405
97	C	0.177541	0.587798	0
98	C	0.139697	0.569018	0.932622
99	S	0.033704	0.516422	0.249621
100	S	0.965894	0.482772	0.750379
101	C	0.869365	0.434872	0.73846
102	S	0.819178	0.409967	0.758595
103	H	0.867162	0.433779	0.217866
104	H	0.937431	0.468648	0.2513
105	H	0.062168	0.530546	0.748701
106	H	0.117083	0.557797	0.402124
107	H	0.132437	0.565415	0.782134
108	H	0.882515	0.441397	0.597876
