data_C114H54N6O6S12_2023-05-13_07:48:30
#******************************************
#
# CIF file created by Zeo++
# Zeo++ is an open source package to
# analyze microporous materials
#
#*******************************************

_cell_length_a		55.4929   
_cell_length_b		55.7913   
_cell_length_c		7   
_cell_angle_alpha		90   
_cell_angle_beta		90   
_cell_angle_gamma		119.766   

_symmetry_space_group_name_H-M		'P1'
_symmetry_Int_Tables_number		1
_symmetry_cell_setting		Monoclinic

loop_
_symmetry_equiv_pos_as_xyz
'+x,+y,+z'

loop_
_atom_site_label
_atom_site_type_symbol
_atom_site_fract_x
_atom_site_fract_y
_atom_site_fract_z
1	C	0.361266	0.672509	0.999995
2	O	0.385755	0.676806	0.999991
3	C	0.339121	0.643798	0.999998
4	C	0.343413	0.622635	0
5	N	0.370825	0.627584	0
6	C	0.310801	0.638701	3e-06
7	O	0.290899	0.613955	5e-06
8	C	0.304005	0.660783	6e-06
9	C	0.277943	0.655454	5e-06
10	N	0.256395	0.627298	0
11	C	0.327214	0.689265	4e-06
12	O	0.321814	0.70836	7e-06
13	C	0.355991	0.695641	0.999999
14	C	0.376452	0.721625	0.999998
15	N	0.372349	0.74469	0
16	H	0.326461	0.602032	1e-06
17	H	0.272451	0.67127	8e-06
18	H	0.39714	0.725335	0.999997
19	C	0.638734	0.327491	0.999995
20	O	0.614245	0.323194	0.999991
21	C	0.660879	0.356202	0.999998
22	C	0.656587	0.377365	0
23	N	0.629175	0.372416	0
24	C	0.689199	0.361299	3e-06
25	O	0.709101	0.386045	5e-06
26	C	0.695995	0.339217	6e-06
27	C	0.722057	0.344546	5e-06
28	N	0.743605	0.372702	0
29	C	0.672786	0.310735	4e-06
30	O	0.678186	0.29164	7e-06
31	C	0.644009	0.304359	0.999999
32	C	0.623548	0.278375	0.999998
33	N	0.627651	0.25531	0
34	H	0.673539	0.397968	1e-06
35	H	0.727549	0.32873	8e-06
36	H	0.60286	0.274665	0.999997
37	C	0.61245	0.388935	0
38	C	0.617569	0.383888	0.817304
39	S	0.604314	0.396995	0.653905
40	C	0.591576	0.409571	0.82861
41	C	0.576819	0.424156	0.780902
42	C	0.570754	0.430177	0.60196
43	C	0.555843	0.444907	0.608925
44	C	0.550518	0.450137	0.793059
45	C	0.535701	0.464767	0.857184
46	C	0.524823	0.475519	0.722101
47	C	0.51065	0.489514	0.776058
48	C	0.499911	0.50013	0.639872
49	C	0.485892	0.513973	0.696023
50	C	0.482216	0.51759	0.889902
51	C	0.468148	0.531482	0.948842
52	C	0.464317	0.535251	0.142817
53	C	0.4495	0.549881	0.206942
54	C	0.44419	0.555126	0.391077
55	C	0.429276	0.569853	0.398041
56	C	0.423194	0.575858	0.219099
57	C	0.408432	0.590437	0.17139
58	C	0.402352	0.596448	0.991504
59	C	0.38755	0.611065	0
60	C	0.382431	0.616112	0.182696
61	S	0.395692	0.603011	0.346095
62	S	0.435888	0.563321	0.046186
63	C	0.475194	0.524497	0.2779
64	C	0.489367	0.510503	0.223943
65	C	0.500106	0.499887	0.36013
66	C	0.514126	0.486044	0.303979
67	C	0.517801	0.482428	0.110099
68	C	0.531871	0.468537	0.051159
69	C	0.507123	0.492984	0.971512
70	C	0.492894	0.507033	0.028489
71	S	0.564112	0.436679	0.953815
72	C	0.597652	0.403556	0.008496
73	H	0.628348	0.37324	0.770953
74	H	0.576612	0.424412	0.469429
75	H	0.549464	0.451232	0.48135
76	H	0.527241	0.47314	0.570359
77	H	0.502355	0.497726	0.488068
78	H	0.477838	0.521935	0.586315
79	H	0.46016	0.53938	0.838354
80	H	0.450583	0.548814	0.518651
81	H	0.423429	0.575628	0.530572
82	H	0.408273	0.590606	0.859587
83	H	0.371649	0.626758	0.229048
84	H	0.472774	0.526876	0.429641
85	H	0.497661	0.50229	0.511933
86	H	0.52218	0.478082	0.413686
87	H	0.539859	0.46064	0.161646
88	H	0.591732	0.409399	0.140413
89	C	0.610584	0.221987	0
90	C	0.615622	0.23209	0.817304
91	S	0.602538	0.205891	0.653905
92	C	0.589983	0.180734	0.82861
93	C	0.575424	0.151575	0.780902
94	C	0.569413	0.139563	0.60196
95	C	0.554708	0.110106	0.608925
96	C	0.549488	0.099616	0.793059
97	C	0.534884	0.070352	0.857184
98	C	0.52415	0.048856	0.722101
99	C	0.510179	0.020862	0.776058
100	C	0.499581	0.99964	0.639872
101	C	0.485762	0.97195	0.696023
102	C	0.482152	0.964703	0.889902
103	C	0.468284	0.936916	0.948842
104	C	0.464522	0.929363	0.142817
105	C	0.449916	0.900099	0.206942
106	C	0.444681	0.889609	0.391077
107	C	0.42998	0.860152	0.398041
108	C	0.423985	0.84814	0.219099
109	C	0.409431	0.818981	0.17139
110	C	0.403431	0.806964	0.991504
111	C	0.388839	0.777728	0
112	C	0.383801	0.767625	0.182696
113	S	0.396879	0.793824	0.346095
114	S	0.4365	0.873215	0.046186
115	C	0.475256	0.950859	0.2779
116	C	0.489227	0.978853	0.223943
117	C	0.499825	7.5e-05	0.36013
118	C	0.513643	0.027765	0.303979
119	C	0.517253	0.035012	0.110099
120	C	0.53112	0.062799	0.051159
121	C	0.506716	0.013909	0.971512
122	C	0.49269	0.985806	0.028489
123	S	0.562923	0.1265	0.953815
124	C	0.595988	0.192751	0.008496
125	H	0.626252	0.253385	0.770953
126	H	0.575168	0.151114	0.469429
127	H	0.548394	0.09748	0.48135
128	H	0.526525	0.053623	0.570359
129	H	0.501981	0.004457	0.488068
130	H	0.477814	0.956033	0.586315
131	H	0.4604	0.921129	0.838354
132	H	0.450982	0.902235	0.518651
133	H	0.424214	0.848601	0.530572
134	H	0.409262	0.818654	0.859587
135	H	0.373174	0.74633	0.229048
136	H	0.472883	0.946091	0.429641
137	H	0.497426	0.995258	0.511933
138	H	0.521591	0.043681	0.413686
139	H	0.539003	0.078586	0.161646
140	H	0.590156	0.181061	0.140413
141	C	0.776535	0.38865	0
142	C	0.766378	0.383594	0.817304
143	S	0.792717	0.396686	0.653905
144	C	0.81801	0.409267	0.82861
145	C	0.847326	0.423841	0.780902
146	C	0.859402	0.429832	0.60196
147	C	0.889017	0.444559	0.608925
148	C	0.899563	0.449818	0.793059
149	C	0.928985	0.464454	0.857184
150	C	0.950596	0.475197	0.722101
151	C	0.97874	0.489196	0.776058
152	C	7.7e-05	0.499802	0.639872
153	C	0.027915	0.513649	0.696023
154	C	0.035201	0.517279	0.889902
155	C	0.063137	0.531175	0.948842
156	C	0.07073	0.534958	0.142817
157	C	0.100152	0.549592	0.206942
158	C	0.110698	0.554837	0.391077
159	C	0.140313	0.569567	0.398041
160	C	0.15239	0.575574	0.219099
161	C	0.181705	0.590154	0.17139
162	C	0.193786	0.59616	0.991504
163	C	0.22318	0.610779	0
164	C	0.233337	0.615835	0.182696
165	S	0.206998	0.602738	0.346095
166	S	0.12718	0.563037	0.046186
167	C	0.049119	0.524215	0.2779
168	C	0.020975	0.510217	0.223943
169	C	0.999638	0.49961	0.36013
170	C	0.9718	0.485763	0.303979
171	C	0.964515	0.482132	0.110099
172	C	0.936578	0.468236	0.051159
173	C	0.98573	0.492679	0.971512
174	C	0.013985	0.506733	0.028489
175	S	0.872535	0.436392	0.953815
176	C	0.805929	0.403265	0.008496
177	H	0.744969	0.372948	0.770953
178	H	0.847789	0.424046	0.469429
179	H	0.901711	0.45086	0.48135
180	H	0.945803	0.472809	0.570359
181	H	0.995233	0.497388	0.488068
182	H	0.043917	0.521603	0.586315
183	H	0.079009	0.539064	0.838354
184	H	0.098004	0.548523	0.518651
185	H	0.151926	0.575343	0.530572
186	H	0.182034	0.590311	0.859587
187	H	0.254746	0.626484	0.229048
188	H	0.053912	0.526605	0.429641
189	H	0.004482	0.502025	0.511933
190	H	0.955798	0.477808	0.413686
191	H	0.920706	0.460346	0.161646
192	H	0.817681	0.409112	0.140413
