data_C78H48N12O6_2023-05-29_15:23:52
#******************************************
#
# CIF file created by Zeo++
# Zeo++ is an open source package to
# analyze microporous materials
#
#*******************************************

_cell_length_a		43.4001   
_cell_length_b		43.6987   
_cell_length_c		7   
_cell_angle_alpha		90   
_cell_angle_beta		90   
_cell_angle_gamma		119.702   

_symmetry_space_group_name_H-M		'P1'
_symmetry_Int_Tables_number		1
_symmetry_cell_setting		Monoclinic

loop_
_symmetry_equiv_pos_as_xyz
'+x,+y,+z'

loop_
_atom_site_label
_atom_site_type_symbol
_atom_site_fract_x
_atom_site_fract_y
_atom_site_fract_z
1	C	0.369039	0.674122	0.999995
2	O	0.400344	0.679603	0.999991
3	C	0.340772	0.637488	0.999998
4	C	0.346295	0.610486	0
5	N	0.381337	0.6168	0
6	C	0.304569	0.630986	3e-06
7	O	0.279164	0.599411	5e-06
8	C	0.295842	0.659159	6e-06
9	C	0.262528	0.65236	5e-06
10	N	0.235023	0.616436	0
11	C	0.325471	0.6955	4e-06
12	O	0.318534	0.719863	7e-06
13	C	0.362256	0.703635	0.999999
14	C	0.388374	0.736788	0.999998
15	N	0.383089	0.766217	0
16	H	0.324654	0.584199	1e-06
17	H	0.255479	0.67254	8e-06
18	H	0.41482	0.741522	0.999997
19	C	0.630961	0.325878	0.999995
20	O	0.599656	0.320397	0.999991
21	C	0.659228	0.362512	0.999998
22	C	0.653705	0.389514	0
23	N	0.618663	0.3832	0
24	C	0.695431	0.369014	3e-06
25	O	0.720836	0.400589	5e-06
26	C	0.704158	0.340841	6e-06
27	C	0.737472	0.34764	5e-06
28	N	0.764977	0.383564	0
29	C	0.674529	0.3045	4e-06
30	O	0.681466	0.280137	7e-06
31	C	0.637744	0.296365	0.999999
32	C	0.611626	0.263212	0.999998
33	N	0.616911	0.233783	0
34	H	0.675346	0.415801	1e-06
35	H	0.744521	0.32746	8e-06
36	H	0.58518	0.258478	0.999997
37	C	0.597251	0.404276	0
38	C	0.596056	0.406883	0.190302
39	C	0.576548	0.424707	0.235946
40	C	0.565608	0.43319	0.074117
41	C	0.544445	0.450794	0.055311
42	C	0.528505	0.451108	0.882738
43	C	0.508346	0.467937	0.868412
44	C	0.504221	0.484679	0.028358
45	C	0.48313	0.50292	0.022047
46	C	0.481451	0.522322	0.175833
47	C	0.46146	0.539347	0.159481
48	C	0.442811	0.536637	0.991879
49	C	0.422492	0.554977	0.967387
50	C	0.397757	0.548922	0.834292
51	C	0.38564	0.574087	0.853868
52	C	0.402749	0.595724	0
53	C	0.427404	0.585397	0.092514
54	C	0.445652	0.516368	0.847363
55	N	0.465069	0.499816	0.857895
56	N	0.519733	0.485002	0.197829
57	C	0.539062	0.468292	0.206873
58	C	0.578258	0.42092	0.904358
59	H	0.607212	0.396994	0.295075
60	H	0.571707	0.429418	0.381246
61	H	0.531131	0.438289	0.755739
62	H	0.496158	0.468097	0.733394
63	H	0.49566	0.524354	0.30811
64	H	0.460699	0.554285	0.280784
65	H	0.388019	0.529001	0.723844
66	H	0.366629	0.57542	0.760797
67	H	0.419211	0.576746	0.24002
68	H	0.454866	0.607037	0.089425
69	H	0.431971	0.512559	0.711379
70	H	0.55047	0.469632	0.346846
71	H	0.596617	0.443441	0.815498
72	H	0.556262	0.401848	0.81765
73	C	0.595142	0.191266	0
74	C	0.592533	0.187492	0.190302
75	C	0.574757	0.150458	0.235946
76	C	0.566306	0.131193	0.074117
77	C	0.548761	0.092739	0.055311
78	C	0.548541	0.076642	0.882738
79	C	0.531768	0.039953	0.868412
80	C	0.514985	0.019227	0.028358
81	C	0.496801	0.980212	0.022047
82	C	0.477333	0.959262	0.175833
83	C	0.460362	0.922545	0.159481
84	C	0.463195	0.906772	0.991879
85	C	0.444906	0.868422	0.967387
86	C	0.451133	0.849948	0.834292
87	C	0.425942	0.812935	0.853868
88	C	0.404119	0.80837	0
89	C	0.414339	0.843049	0.092514
90	C	0.483526	0.929733	0.847363
91	N	0.500025	0.965412	0.857895
92	N	0.514568	0.034266	0.197829
93	C	0.531228	0.070015	0.206873
94	C	0.578548	0.155915	0.904358
95	H	0.602393	0.208368	0.295075
96	H	0.570056	0.140982	0.381246
97	H	0.561394	0.091985	0.755739
98	H	0.531681	0.027726	0.733394
99	H	0.475208	0.971312	0.30811
100	H	0.445371	0.906943	0.280784
101	H	0.471188	0.860106	0.723844
102	H	0.424718	0.792786	0.760797
103	H	0.423072	0.843535	0.24002
104	H	0.392449	0.848731	0.089425
105	H	0.487431	0.919972	0.711379
106	H	0.529814	0.07998	0.346846
107	H	0.55583	0.151709	0.815498
108	H	0.597826	0.153093	0.81765
109	C	0.807056	0.403912	0
110	C	0.810861	0.405079	0.190302
111	C	0.848144	0.424289	0.235946
112	C	0.867535	0.435071	0.074117
113	C	0.906243	0.455921	0.055311
114	C	0.922404	0.471703	0.882738
115	C	0.959335	0.491564	0.868412
116	C	0.980242	0.495548	0.028358
117	C	0.019518	0.516323	0.022047
118	C	0.040665	0.517869	0.175833
119	C	0.077626	0.537562	0.159481
120	C	0.093443	0.556045	0.991879
121	C	0.132052	0.576055	0.967387
122	C	0.15056	0.600584	0.834292
123	C	0.187867	0.612431	0.853868
124	C	0.192581	0.59536	0
125	C	0.157706	0.571008	0.092514
126	C	0.070272	0.553353	0.847363
127	N	0.034355	0.534226	0.857895
128	N	0.965148	0.480185	0.197829
129	C	0.92916	0.461147	0.206873
130	C	0.842644	0.422619	0.904358
131	H	0.789844	0.394091	0.295075
132	H	0.857686	0.429054	0.381246
133	H	0.906924	0.46918	0.755739
134	H	0.97161	0.503631	0.733394
135	H	0.028581	0.503787	0.30811
136	H	0.093379	0.538226	0.280784
137	H	0.140242	0.610346	0.723844
138	H	0.208102	0.631248	0.760797
139	H	0.157166	0.579173	0.24002
140	H	0.152134	0.543686	0.089425
141	H	0.080047	0.566923	0.711379
142	H	0.919165	0.449843	0.346846
143	H	0.847002	0.404304	0.815498
144	H	0.845361	0.444513	0.81765
