data_C60H24N6O6S12_2023-05-12_19:43:03
#******************************************
#
# CIF file created by Zeo++
# Zeo++ is an open source package to
# analyze microporous materials
#
#*******************************************

_cell_length_a		38.8801   
_cell_length_b		39.1787   
_cell_length_c		7   
_cell_angle_alpha		90   
_cell_angle_beta		90   
_cell_angle_gamma		119.667   

_symmetry_space_group_name_H-M		'P1'
_symmetry_Int_Tables_number		1
_symmetry_cell_setting		Monoclinic

loop_
_symmetry_equiv_pos_as_xyz
'+x,+y,+z'

loop_
_atom_site_label
_atom_site_type_symbol
_atom_site_fract_x
_atom_site_fract_y
_atom_site_fract_z
1	C	0.373184	0.674979	0.999995
2	O	0.408124	0.681091	0.999991
3	C	0.341659	0.634133	0.999998
4	C	0.347845	0.604026	0
5	N	0.386956	0.611066	0
6	C	0.301253	0.626883	3e-06
7	O	0.272918	0.591678	5e-06
8	C	0.291489	0.658296	6e-06
9	C	0.254307	0.650715	5e-06
10	N	0.223633	0.61066	0
11	C	0.324535	0.698815	4e-06
12	O	0.316772	0.72598	7e-06
13	C	0.365589	0.707886	0.999999
14	C	0.394718	0.744851	0.999998
15	N	0.388796	0.777664	0
16	H	0.323709	0.574717	1e-06
17	H	0.246423	0.673215	8e-06
18	H	0.424235	0.750129	0.999997
19	C	0.626816	0.325021	0.999995
20	O	0.591876	0.318909	0.999991
21	C	0.658341	0.365867	0.999998
22	C	0.652155	0.395974	0
23	N	0.613044	0.388934	0
24	C	0.698747	0.373117	3e-06
25	O	0.727082	0.408322	5e-06
26	C	0.708511	0.341704	6e-06
27	C	0.745693	0.349285	5e-06
28	N	0.776367	0.38934	0
29	C	0.675465	0.301185	4e-06
30	O	0.683228	0.27402	7e-06
31	C	0.634411	0.292114	0.999999
32	C	0.605282	0.255149	0.999998
33	N	0.611204	0.222336	0
34	H	0.676291	0.425283	1e-06
35	H	0.753577	0.326785	8e-06
36	H	0.575765	0.249871	0.999997
37	C	0.589126	0.412433	0
38	C	0.591944	0.409667	0.193729
39	S	0.569614	0.431606	0.312034
40	C	0.555972	0.445007	0.102588
41	C	0.534228	0.466369	0.103771
42	C	0.521784	0.478596	0.261788
43	C	0.501187	0.498831	0.208732
44	C	0.498343	0.501624	0.016393
45	C	0.477745	0.521862	0.963368
46	C	0.465287	0.534103	0.121356
47	C	0.443528	0.555481	0.116774
48	C	0.431532	0.567271	0.955026
49	C	0.410874	0.587567	0
50	C	0.40715	0.591221	0.192294
51	S	0.428902	0.569847	0.319949
52	S	0.478643	0.520982	0.332335
53	S	0.520885	0.479476	0.892617
54	C	0.568702	0.432498	0.946118
55	H	0.605873	0.395984	0.272094
56	H	0.52682	0.473649	0.408813
57	H	0.472705	0.526812	0.81645
58	H	0.437327	0.561581	0.810616
59	H	0.392875	0.605245	0.264737
60	H	0.563594	0.437514	0.799273
61	C	0.586937	0.174931	0
62	C	0.589697	0.180466	0.193729
63	S	0.567812	0.136588	0.312034
64	C	0.554444	0.109783	0.102588
65	C	0.533135	0.067057	0.103771
66	C	0.520939	0.042605	0.261788
67	C	0.500753	0.002132	0.208732
68	C	0.497967	0.996545	0.016393
69	C	0.47778	0.95607	0.963368
70	C	0.465569	0.931588	0.121356
71	C	0.444244	0.888832	0.116774
72	C	0.432483	0.865256	0.955026
73	C	0.412238	0.824664	0
74	C	0.408592	0.81735	0.192294
75	S	0.429914	0.860096	0.319949
76	S	0.478658	0.957833	0.332335
77	S	0.52006	0.040841	0.892617
78	C	0.566922	0.134799	0.946118
79	H	0.603346	0.207835	0.272094
80	H	0.525874	0.0525	0.408813
81	H	0.472842	0.946168	0.81645
82	H	0.438159	0.87664	0.810616
83	H	0.394603	0.789301	0.264737
84	H	0.561919	0.124765	0.799273
85	C	0.823322	0.412027	0
86	C	0.817744	0.409258	0.193729
87	S	0.861959	0.431197	0.312034
88	C	0.888969	0.444601	0.102588
89	C	0.932022	0.465965	0.103771
90	C	0.956662	0.478191	0.261788
91	C	0.997445	0.498427	0.208732
92	C	0.003075	0.501222	0.016393
93	C	0.04386	0.52146	0.963368
94	C	0.068529	0.5337	0.121356
95	C	0.111613	0.555078	0.116774
96	C	0.13537	0.566864	0.955026
97	C	0.176273	0.587161	0
98	C	0.183643	0.59082	0.192294
99	S	0.140569	0.569448	0.319949
100	S	0.042084	0.520577	0.332335
101	S	0.958439	0.479074	0.892617
102	C	0.863761	0.432094	0.946118
103	H	0.790166	0.395573	0.272094
104	H	0.946691	0.473243	0.408813
105	H	0.053838	0.526411	0.81645
106	H	0.123899	0.56117	0.810616
107	H	0.211907	0.604845	0.264737
108	H	0.873872	0.437112	0.799273
