data_C48H18N6O6S6_2023-05-24_19:52:30
#******************************************
#
# CIF file created by Zeo++
# Zeo++ is an open source package to
# analyze microporous materials
#
#*******************************************

_cell_length_a		33.6084   
_cell_length_b		33.9071   
_cell_length_c		7   
_cell_angle_alpha		90   
_cell_angle_beta		90   
_cell_angle_gamma		119.615   

_symmetry_space_group_name_H-M		'P1'
_symmetry_Int_Tables_number		1
_symmetry_cell_setting		Monoclinic

loop_
_symmetry_equiv_pos_as_xyz
'+x,+y,+z'

loop_
_atom_site_label
_atom_site_type_symbol
_atom_site_fract_x
_atom_site_fract_y
_atom_site_fract_z
1	C	0.379424	0.676266	0.999995
2	O	0.419838	0.683325	0.999991
3	C	0.343004	0.629094	0.999998
4	C	0.350197	0.594324	0
5	N	0.395435	0.602455	0
6	C	0.296269	0.620721	3e-06
7	O	0.263533	0.580064	5e-06
8	C	0.284936	0.656999	6e-06
9	C	0.24193	0.648245	5e-06
10	N	0.206493	0.601986	0
11	C	0.323115	0.703794	4e-06
12	O	0.314102	0.735166	7e-06
13	C	0.370599	0.71427	0.999999
14	C	0.404252	0.75696	0.999998
15	N	0.397361	0.794856	0
16	H	0.322311	0.560476	1e-06
17	H	0.232782	0.67423	8e-06
18	H	0.438392	0.763056	0.999997
19	C	0.620576	0.323734	0.999995
20	O	0.580162	0.316675	0.999991
21	C	0.656996	0.370906	0.999998
22	C	0.649803	0.405676	0
23	N	0.604565	0.397545	0
24	C	0.703731	0.379279	3e-06
25	O	0.736467	0.419936	5e-06
26	C	0.715064	0.343001	6e-06
27	C	0.75807	0.351755	5e-06
28	N	0.793507	0.398014	0
29	C	0.676885	0.296206	4e-06
30	O	0.685898	0.264834	7e-06
31	C	0.629401	0.28573	0.999999
32	C	0.595748	0.24304	0.999998
33	N	0.602639	0.205144	0
34	H	0.677689	0.439524	1e-06
35	H	0.767218	0.32577	8e-06
36	H	0.561608	0.236944	0.999997
37	C	0.423133	0.575316	0
38	C	0.4294	0.569176	0.189043
39	C	0.454007	0.545065	0.209563
40	C	0.465197	0.534101	0.035338
41	C	0.489682	0.510109	0.010438
42	C	0.510317	0.489891	0.989562
43	C	0.534803	0.465899	0.964662
44	C	0.545992	0.454935	0.790437
45	C	0.5706	0.430824	0.810957
46	C	0.576867	0.424684	0
47	S	0.553958	0.447131	0.151111
48	S	0.446042	0.552869	0.84889
49	H	0.417251	0.581079	0.30688
50	H	0.462959	0.536294	0.345639
51	H	0.53704	0.463705	0.654361
52	H	0.582748	0.41892	0.69312
53	C	0.424423	0.849134	0
54	C	0.430545	0.861415	0.189043
55	C	0.454587	0.909636	0.209563
56	C	0.46552	0.931564	0.035338
57	C	0.489442	0.979547	0.010438
58	C	0.509603	0.019985	0.989562
59	C	0.533526	0.067968	0.964662
60	C	0.544459	0.089896	0.790437
61	C	0.5685	0.138117	0.810957
62	C	0.574622	0.150398	0
63	S	0.55224	0.105504	0.151111
64	S	0.446805	0.894028	0.84889
65	H	0.418676	0.837607	0.30688
66	H	0.463333	0.927178	0.345639
67	H	0.535713	0.072354	0.654361
68	H	0.58037	0.161925	0.69312
69	C	0.151733	0.574847	0
70	C	0.139344	0.568707	0.189043
71	C	0.090695	0.544596	0.209563
72	C	0.068573	0.533632	0.035338
73	C	0.020164	0.50964	0.010438
74	C	0.979369	0.489422	0.989562
75	C	0.93096	0.46543	0.964662
76	C	0.908838	0.454467	0.790437
77	C	0.860189	0.430356	0.810957
78	C	0.847799	0.424215	0
79	S	0.893091	0.446661	0.151111
80	S	0.106442	0.5524	0.84889
81	H	0.163362	0.58061	0.30688
82	H	0.072998	0.535825	0.345639
83	H	0.926535	0.463238	0.654361
84	H	0.83617	0.418452	0.69312
