data_C72H33N15O6S12_2023-05-11_11:18:16
#******************************************
#
# CIF file created by Zeo++
# Zeo++ is an open source package to
# analyze microporous materials
#
#*******************************************

_cell_length_a		48.2183   
_cell_length_b		48.5168   
_cell_length_c		7   
_cell_angle_alpha		90   
_cell_angle_beta		90   
_cell_angle_gamma		119.731   

_symmetry_space_group_name_H-M		'P1'
_symmetry_Int_Tables_number		1
_symmetry_cell_setting		Monoclinic

loop_
_symmetry_equiv_pos_as_xyz
'+x,+y,+z'

loop_
_atom_site_label
_atom_site_type_symbol
_atom_site_fract_x
_atom_site_fract_y
_atom_site_fract_z
1	C	0.365475	0.673383	0.999995
2	O	0.393655	0.678322	0.999991
3	C	0.340013	0.640378	0.999998
4	C	0.344969	0.61605	0
5	N	0.376513	0.621739	0
6	C	0.307424	0.63452	3e-06
7	O	0.28454	0.606072	5e-06
8	C	0.299584	0.659903	6e-06
9	C	0.269595	0.653777	5e-06
10	N	0.244819	0.621411	0
11	C	0.326273	0.692644	4e-06
12	O	0.320042	0.714594	7e-06
13	C	0.359386	0.699974	0.999999
14	C	0.382912	0.729843	0.999998
15	N	0.378171	0.756358	0
16	H	0.325477	0.592367	1e-06
17	H	0.263261	0.671958	8e-06
18	H	0.406718	0.734108	0.999997
19	C	0.634525	0.326617	0.999995
20	O	0.606345	0.321678	0.999991
21	C	0.659987	0.359622	0.999998
22	C	0.655031	0.38395	0
23	N	0.623487	0.378261	0
24	C	0.692576	0.36548	3e-06
25	O	0.71546	0.393928	5e-06
26	C	0.700416	0.340097	6e-06
27	C	0.730405	0.346223	5e-06
28	N	0.755181	0.378589	0
29	C	0.673727	0.307356	4e-06
30	O	0.679958	0.285406	7e-06
31	C	0.640614	0.300026	0.999999
32	C	0.617088	0.270157	0.999998
33	N	0.621829	0.243642	0
34	H	0.674523	0.407633	1e-06
35	H	0.736739	0.328042	8e-06
36	H	0.593282	0.265892	0.999997
37	C	0.604225	0.39725	0
38	C	0.603525	0.39794	0.804569
39	S	0.58404	0.417149	0.726542
40	C	0.576425	0.424656	0.955733
41	C	0.559351	0.441488	0.996992
42	C	0.55201	0.448726	0.174719
43	N	0.53538	0.46512	0.176321
44	C	0.529991	0.470433	0.999697
45	C	0.511479	0.488683	0.956115
46	C	0.504397	0.495665	0.778183
47	N	0.488022	0.511808	0.804222
48	C	0.484426	0.515353	0.996196
49	C	0.468367	0.531185	0.071578
50	N	0.465588	0.533925	0.256312
51	C	0.449175	0.550106	0.289168
52	C	0.439379	0.559763	0.129043
53	C	0.421997	0.5769	0.117725
54	C	0.412421	0.586339	0.955474
55	C	0.395775	0.60275	0
56	C	0.392729	0.605755	0.192263
57	S	0.410219	0.588513	0.320681
58	S	0.451531	0.547783	0.92961
59	C	0.498937	0.501048	0.093253
60	S	0.544485	0.456145	0.825595
61	C	0.588857	0.4124	0.088005
62	H	0.613368	0.388236	0.703504
63	H	0.558234	0.442589	0.310684
64	H	0.509462	0.490672	0.635816
65	H	0.479743	0.519971	0.69823
66	H	0.445038	0.554184	0.435985
67	H	0.417132	0.581693	0.811196
68	H	0.38121	0.617112	0.264207
69	H	0.500325	0.499679	0.247184
70	H	0.587011	0.414221	0.241166
71	C	0.602213	0.205337	0
72	C	0.601524	0.203956	0.804569
73	S	0.582354	0.165538	0.726542
74	C	0.574861	0.150523	0.955733
75	C	0.558063	0.116859	0.996992
76	C	0.55084	0.102384	0.174719
77	N	0.534478	0.069596	0.176321
78	C	0.529176	0.05897	0.999697
79	C	0.510962	0.022469	0.956115
80	C	0.503994	0.008505	0.778183
81	N	0.487883	0.976219	0.804222
82	C	0.484345	0.96913	0.996196
83	C	0.468545	0.937465	0.071578
84	N	0.46581	0.931986	0.256312
85	C	0.449662	0.899625	0.289168
86	C	0.440024	0.880311	0.129043
87	C	0.422922	0.846037	0.117725
88	C	0.413501	0.827158	0.955474
89	C	0.397122	0.794335	0
90	C	0.394123	0.788327	0.192263
91	S	0.411331	0.822812	0.320681
92	S	0.45198	0.90427	0.92961
93	C	0.498622	0.99774	0.093253
94	S	0.543435	0.087546	0.825595
95	C	0.587093	0.175036	0.088005
96	H	0.611209	0.223364	0.703504
97	H	0.556964	0.114656	0.310684
98	H	0.508978	0.018493	0.635816
99	H	0.479737	0.959895	0.69823
100	H	0.445592	0.891469	0.435985
101	H	0.418138	0.836448	0.811196
102	H	0.382789	0.765615	0.264207
103	H	0.499988	0.000477	0.247184
104	H	0.585276	0.171395	0.241166
105	C	0.793066	0.396921	0
106	C	0.794455	0.397612	0.804569
107	S	0.83311	0.416821	0.726542
108	C	0.848218	0.424328	0.955733
109	C	0.882091	0.441161	0.996992
110	C	0.896655	0.448398	0.174719
111	N	0.929646	0.464792	0.176321
112	C	0.940337	0.470105	0.999697
113	C	0.977063	0.488355	0.956115
114	C	0.991114	0.495337	0.778183
115	N	0.023599	0.51148	0.804222
116	C	0.030732	0.515025	0.996196
117	C	0.062592	0.530857	0.071578
118	N	0.068106	0.533597	0.256312
119	C	0.100667	0.549778	0.289168
120	C	0.1201	0.559434	0.129043
121	C	0.154585	0.576571	0.117725
122	C	0.173581	0.586011	0.955474
123	C	0.206607	0.602422	0
124	C	0.212652	0.605425	0.192263
125	S	0.177954	0.588182	0.320681
126	S	0.095993	0.547455	0.92961
127	C	0.001946	0.50072	0.093253
128	S	0.911584	0.455817	0.825595
129	C	0.823554	0.412072	0.088005
130	H	0.774927	0.387908	0.703504
131	H	0.884307	0.442262	0.310684
132	H	0.981064	0.490343	0.635816
133	H	0.040024	0.519642	0.69823
134	H	0.108874	0.553856	0.435985
135	H	0.164234	0.581367	0.811196
136	H	0.235505	0.616781	0.264207
137	H	0.999192	0.499352	0.247184
138	H	0.827217	0.413892	0.241166
