data_C84H48N12O6_2023-05-11_10:03:48
#******************************************
#
# CIF file created by Zeo++
# Zeo++ is an open source package to
# analyze microporous materials
#
#*******************************************

_cell_length_a		43.2416   
_cell_length_b		43.5401   
_cell_length_c		7   
_cell_angle_alpha		90   
_cell_angle_beta		90   
_cell_angle_gamma		119.7   

_symmetry_space_group_name_H-M		'P1'
_symmetry_Int_Tables_number		1
_symmetry_cell_setting		Monoclinic

loop_
_symmetry_equiv_pos_as_xyz
'+x,+y,+z'

loop_
_atom_site_label
_atom_site_type_symbol
_atom_site_fract_x
_atom_site_fract_y
_atom_site_fract_z
1	C	0.36917	0.674149	0.999995
2	O	0.400589	0.67965	0.999991
3	C	0.3408	0.637382	0.999998
4	C	0.346344	0.610282	0
5	N	0.381514	0.616619	0
6	C	0.304464	0.630856	3e-06
7	O	0.278966	0.599167	5e-06
8	C	0.295705	0.659132	6e-06
9	C	0.262268	0.652308	5e-06
10	N	0.234663	0.616254	0
11	C	0.325442	0.695605	4e-06
12	O	0.318479	0.720056	7e-06
13	C	0.362361	0.703769	0.999999
14	C	0.388574	0.737043	0.999998
15	N	0.38327	0.766579	0
16	H	0.324624	0.5839	1e-06
17	H	0.255193	0.672561	8e-06
18	H	0.415117	0.741794	0.999997
19	C	0.63083	0.325851	0.999995
20	O	0.599411	0.32035	0.999991
21	C	0.6592	0.362618	0.999998
22	C	0.653656	0.389718	0
23	N	0.618486	0.383381	0
24	C	0.695536	0.369144	3e-06
25	O	0.721034	0.400833	5e-06
26	C	0.704295	0.340868	6e-06
27	C	0.737732	0.347692	5e-06
28	N	0.765337	0.383746	0
29	C	0.674558	0.304395	4e-06
30	O	0.681521	0.279944	7e-06
31	C	0.637639	0.296231	0.999999
32	C	0.611426	0.262957	0.999998
33	N	0.61673	0.233421	0
34	H	0.675376	0.4161	1e-06
35	H	0.744807	0.327439	8e-06
36	H	0.584883	0.258206	0.999997
37	C	0.403005	0.595467	0
38	C	0.403779	0.594699	0.190889
39	C	0.423055	0.575728	0.253174
40	C	0.433039	0.565912	0.065034
41	C	0.452714	0.546555	0.050652
42	C	0.461701	0.537723	0.877017
43	N	0.47981	0.519909	0.856147
44	C	0.49047	0.509409	0.012911
45	C	0.482541	0.517198	0.196371
46	C	0.463693	0.535743	0.212256
47	C	0.493231	0.50667	0.360595
48	C	0.511813	0.488387	0.344689
49	C	0.519906	0.480435	0.164401
50	C	0.538749	0.461895	0.148076
51	C	0.547162	0.453629	0.969865
52	C	0.566775	0.434334	0.94785
53	C	0.579355	0.421839	0.085473
54	C	0.596995	0.404533	0
55	C	0.595574	0.406076	0.809593
56	C	0.576104	0.425287	0.755454
57	C	0.535693	0.46493	0.813715
58	N	0.517515	0.482817	0.823828
59	C	0.509335	0.490849	0.996753
60	C	0.42093	0.577832	0.922108
61	H	0.392422	0.60587	0.286744
62	H	0.405399	0.552281	0.337197
63	H	0.446623	0.593351	0.337229
64	H	0.454572	0.544744	0.741644
65	H	0.457716	0.541616	0.354019
66	H	0.487184	0.512614	0.502118
67	H	0.519915	0.48041	0.474055
68	H	0.546785	0.453984	0.27773
69	H	0.577217	0.423824	0.238007
70	H	0.606588	0.395306	0.708902
71	H	0.593478	0.449074	0.673064
72	H	0.552247	0.408006	0.672472
73	H	0.540695	0.460018	0.667886
74	H	0.423574	0.575237	0.770481
75	C	0.404375	0.808884	0
76	C	0.405142	0.810413	0.190889
77	C	0.42407	0.848357	0.253174
78	C	0.433864	0.867999	0.065034
79	C	0.453178	0.906722	0.050652
80	C	0.46199	0.924399	0.877017
81	N	0.479764	0.960037	0.856147
82	C	0.490241	0.981029	0.012911
83	C	0.482469	0.965435	0.196371
84	C	0.463966	0.928339	0.212256
85	C	0.492974	0.986486	0.360595
86	C	0.511216	0.023057	0.344689
87	C	0.519151	0.038976	0.164401
88	C	0.537649	0.076061	0.148076
89	C	0.545897	0.092607	0.969865
90	C	0.565149	0.131207	0.94785
91	C	0.577616	0.156083	0.085473
92	C	0.594883	0.190751	0
93	C	0.593344	0.187811	0.809593
94	C	0.574175	0.149437	0.755454
95	C	0.534621	0.070018	0.813715
96	N	0.516773	0.034239	0.823828
97	C	0.508759	0.018157	0.996753
98	C	0.42197	0.844161	0.922108
99	H	0.393995	0.788064	0.286744
100	H	0.447714	0.85418	0.337197
101	H	0.406237	0.854176	0.337229
102	H	0.454985	0.910362	0.741644
103	H	0.458106	0.916584	0.354019
104	H	0.487043	0.974589	0.502118
105	H	0.519176	0.039009	0.474055
106	H	0.545543	0.091882	0.27773
107	H	0.575637	0.151992	0.238007
108	H	0.604089	0.209422	0.708902
109	H	0.550191	0.142996	0.673064
110	H	0.591667	0.142991	0.672472
111	H	0.539522	0.079854	0.667886
112	H	0.42456	0.849359	0.770481
113	C	0.192066	0.595101	0
114	C	0.190527	0.59434	0.190889
115	C	0.152322	0.575367	0.253174
116	C	0.132544	0.565541	0.065034
117	C	0.093555	0.546175	0.050652
118	C	0.075756	0.537329	0.877017
119	N	0.039873	0.519506	0.856147
120	C	0.018736	0.509014	0.012911
121	C	0.034437	0.516818	0.196371
122	C	0.071788	0.53537	0.212256
123	C	0.013241	0.506297	0.360595
124	C	0.976418	0.488008	0.344689
125	C	0.96039	0.480042	0.164401
126	C	0.923049	0.461496	0.148076
127	C	0.906389	0.453216	0.969865
128	C	0.867524	0.433911	0.94785
129	C	0.842475	0.42153	0.085473
130	C	0.807569	0.404168	0
131	C	0.810529	0.405565	0.809593
132	C	0.849168	0.424728	0.755454
133	C	0.929133	0.464504	0.813715
134	N	0.965159	0.482395	0.823828
135	C	0.981352	0.490446	0.996753
136	C	0.156547	0.577459	0.922108
137	H	0.21303	0.605518	0.286744
138	H	0.146334	0.59299	0.337197
139	H	0.146587	0.551925	0.337229
140	H	0.08989	0.544347	0.741644
141	H	0.083625	0.541252	0.354019
142	H	0.02522	0.512248	0.502118
143	H	0.960357	0.480033	0.474055
144	H	0.907119	0.453586	0.27773
145	H	0.846594	0.423635	0.238007
146	H	0.78877	0.394724	0.708902
147	H	0.855778	0.407382	0.673064
148	H	0.855534	0.448455	0.672472
149	H	0.91923	0.45958	0.667886
150	H	0.151313	0.574856	0.770481
