data_C78H36N6O6S15_2023-05-13_02:42:43
#******************************************
#
# CIF file created by Zeo++
# Zeo++ is an open source package to
# analyze microporous materials
#
#*******************************************

_cell_length_a		43.3572   
_cell_length_b		43.6557   
_cell_length_c		7   
_cell_angle_alpha		90   
_cell_angle_beta		90   
_cell_angle_gamma		119.701   

_symmetry_space_group_name_H-M		'P1'
_symmetry_Int_Tables_number		1
_symmetry_cell_setting		Monoclinic

loop_
_symmetry_equiv_pos_as_xyz
'+x,+y,+z'

loop_
_atom_site_label
_atom_site_type_symbol
_atom_site_fract_x
_atom_site_fract_y
_atom_site_fract_z
1	C	0.369074	0.674129	0.999995
2	O	0.40041	0.679616	0.999991
3	C	0.340779	0.637459	0.999998
4	C	0.346308	0.610431	0
5	N	0.381385	0.616751	0
6	C	0.304541	0.630951	3e-06
7	O	0.27911	0.599345	5e-06
8	C	0.295805	0.659152	6e-06
9	C	0.262457	0.652346	5e-06
10	N	0.234926	0.616387	0
11	C	0.325463	0.695528	4e-06
12	O	0.318519	0.719915	7e-06
13	C	0.362284	0.703671	0.999999
14	C	0.388428	0.736857	0.999998
15	N	0.383138	0.766315	0
16	H	0.324646	0.584118	1e-06
17	H	0.255402	0.672546	8e-06
18	H	0.4149	0.741596	0.999997
19	C	0.630926	0.325871	0.999995
20	O	0.59959	0.320384	0.999991
21	C	0.659221	0.362541	0.999998
22	C	0.653692	0.389569	0
23	N	0.618615	0.383249	0
24	C	0.695459	0.369049	3e-06
25	O	0.72089	0.400655	5e-06
26	C	0.704195	0.340848	6e-06
27	C	0.737543	0.347654	5e-06
28	N	0.765074	0.383613	0
29	C	0.674537	0.304472	4e-06
30	O	0.681481	0.280085	7e-06
31	C	0.637716	0.296329	0.999999
32	C	0.611572	0.263143	0.999998
33	N	0.616862	0.233685	0
34	H	0.675354	0.415882	1e-06
35	H	0.744598	0.327454	8e-06
36	H	0.5851	0.258404	0.999997
37	C	0.597182	0.404345	0
38	C	0.581651	0.419632	0.896012
39	C	0.566341	0.434702	0.018449
40	C	0.570749	0.430363	0.211095
41	C	0.558768	0.442156	0.374254
42	C	0.563168	0.437824	0.566449
43	C	0.54785	0.452901	0.688763
44	C	0.53207	0.468434	0.587147
45	C	0.51278	0.487421	0.678907
46	C	0.509783	0.490371	0.8728
47	S	0.487478	0.512325	0.92699
48	C	0.48127	0.518436	0.690227
49	C	0.462592	0.536821	0.632816
50	C	0.447556	0.55162	0.748147
51	C	0.431215	0.567704	0.642224
52	C	0.433869	0.565092	0.4467
53	C	0.420094	0.57865	0.300246
54	C	0.401692	0.596763	0.329115
55	C	0.391671	0.606627	0.155274
56	C	0.402818	0.595655	0
57	S	0.424763	0.574055	0.058912
58	S	0.456378	0.542937	0.396692
59	C	0.496336	0.503607	0.574414
60	S	0.535867	0.464697	0.347014
61	S	0.593717	0.407755	0.238548
62	H	0.581071	0.420203	0.74143
63	H	0.552706	0.448123	0.965314
64	H	0.576795	0.424412	0.619755
65	H	0.548703	0.452062	0.843106
66	H	0.519469	0.480837	0.987476
67	H	0.448014	0.55117	0.90284
68	H	0.418144	0.58057	0.709289
69	H	0.395481	0.602876	0.468932
70	H	0.377185	0.620885	0.146978
71	H	0.495638	0.504294	0.419859
72	C	0.595072	0.191127	0
73	C	0.57982	0.160554	0.896012
74	C	0.564783	0.130414	0.018449
75	C	0.569113	0.139093	0.211095
76	C	0.557346	0.115506	0.374254
77	C	0.561668	0.124169	0.566449
78	C	0.546624	0.094015	0.688763
79	C	0.531126	0.062949	0.587147
80	C	0.512181	0.024976	0.678907
81	C	0.509238	0.019076	0.8728
82	S	0.487333	0.975168	0.92699
83	C	0.481236	0.962947	0.690227
84	C	0.462891	0.926177	0.632816
85	C	0.448125	0.896578	0.748147
86	C	0.432076	0.864409	0.642224
87	C	0.434683	0.869635	0.4467
88	C	0.421155	0.842518	0.300246
89	C	0.403082	0.806291	0.329115
90	C	0.39324	0.786564	0.155274
91	C	0.404188	0.808509	0
92	S	0.42574	0.851709	0.058912
93	S	0.456789	0.913944	0.396692
94	C	0.496031	0.992604	0.574414
95	S	0.534855	0.070425	0.347014
96	S	0.59167	0.184307	0.238548
97	H	0.57925	0.159412	0.74143
98	H	0.551392	0.103573	0.965314
99	H	0.575051	0.150994	0.619755
100	H	0.547461	0.095693	0.843106
101	H	0.518751	0.038144	0.987476
102	H	0.448574	0.897479	0.90284
103	H	0.419239	0.838679	0.709289
104	H	0.396982	0.794065	0.468932
105	H	0.379014	0.758048	0.146978
106	H	0.495346	0.991231	0.419859
107	C	0.807195	0.403981	0
108	C	0.837978	0.419267	0.896012
109	C	0.868325	0.434337	0.018449
110	C	0.859586	0.429998	0.211095
111	C	0.883335	0.441791	0.374254
112	C	0.874613	0.43746	0.566449
113	C	0.904974	0.452537	0.688763
114	C	0.936253	0.46807	0.587147
115	C	0.974488	0.487057	0.678907
116	C	0.980427	0.490006	0.8728
117	S	0.024638	0.51196	0.92699
118	C	0.036943	0.518071	0.690227
119	C	0.073965	0.536456	0.632816
120	C	0.103768	0.551255	0.748147
121	C	0.136157	0.56734	0.642224
122	C	0.130896	0.564727	0.4467
123	C	0.158199	0.578285	0.300246
124	C	0.194675	0.596399	0.329115
125	C	0.214537	0.606262	0.155274
126	C	0.192442	0.59529	0
127	S	0.148945	0.57369	0.058912
128	S	0.086282	0.542572	0.396692
129	C	0.007081	0.503242	0.574414
130	S	0.928726	0.464332	0.347014
131	S	0.814061	0.407391	0.238548
132	H	0.839127	0.419838	0.74143
133	H	0.89535	0.447757	0.965314
134	H	0.847603	0.424047	0.619755
135	H	0.903284	0.451698	0.843106
136	H	0.961229	0.480472	0.987476
137	H	0.10286	0.550805	0.90284
138	H	0.162065	0.580205	0.709289
139	H	0.206985	0.602512	0.468932
140	H	0.24325	0.620521	0.146978
141	H	0.008464	0.503929	0.419859
