data_C60H30N6O6S6_2023-05-13_22:01:32
#******************************************
#
# CIF file created by Zeo++
# Zeo++ is an open source package to
# analyze microporous materials
#
#*******************************************

_cell_length_a		36.2425   
_cell_length_b		36.5411   
_cell_length_c		7   
_cell_angle_alpha		90   
_cell_angle_beta		90   
_cell_angle_gamma		119.643   

_symmetry_space_group_name_H-M		'P1'
_symmetry_Int_Tables_number		1
_symmetry_cell_setting		Monoclinic

loop_
_symmetry_equiv_pos_as_xyz
'+x,+y,+z'

loop_
_atom_site_label
_atom_site_type_symbol
_atom_site_fract_x
_atom_site_fract_y
_atom_site_fract_z
1	C	0.37608	0.675577	0.999995
2	O	0.413559	0.682129	0.999991
3	C	0.342282	0.631793	0.999998
4	C	0.348934	0.599521	0
5	N	0.390888	0.607067	0
6	C	0.298938	0.624022	3e-06
7	O	0.26856	0.586284	5e-06
8	C	0.288448	0.657694	6e-06
9	C	0.248564	0.649568	5e-06
10	N	0.215678	0.606632	0
11	C	0.323878	0.701128	4e-06
12	O	0.315536	0.730246	7e-06
13	C	0.367915	0.710851	0.999999
14	C	0.399145	0.750474	0.999998
15	N	0.392775	0.785648	0
16	H	0.323056	0.568103	1e-06
17	H	0.240094	0.673686	8e-06
18	H	0.430807	0.756132	0.999997
19	C	0.62392	0.324423	0.999995
20	O	0.586441	0.317871	0.999991
21	C	0.657718	0.368207	0.999998
22	C	0.651066	0.400479	0
23	N	0.609112	0.392933	0
24	C	0.701062	0.375978	3e-06
25	O	0.73144	0.413716	5e-06
26	C	0.711552	0.342306	6e-06
27	C	0.751436	0.350432	5e-06
28	N	0.784322	0.393368	0
29	C	0.676122	0.298872	4e-06
30	O	0.684464	0.269754	7e-06
31	C	0.632085	0.289149	0.999999
32	C	0.600855	0.249526	0.999998
33	N	0.607225	0.214352	0
34	H	0.676944	0.431897	1e-06
35	H	0.759906	0.326314	8e-06
36	H	0.569193	0.243868	0.999997
37	C	0.583441	0.418123	0
38	C	0.583397	0.418163	0.195431
39	S	0.557832	0.443248	0.282522
40	C	0.546476	0.454393	0.057086
41	C	0.522843	0.477583	0.030406
42	C	0.508336	0.491819	0.183379
43	C	0.486032	0.513706	0.153608
44	C	0.477155	0.522416	0.969594
45	C	0.453522	0.545606	0.942914
46	C	0.437429	0.561397	0.080347
47	C	0.416559	0.581877	0
48	C	0.416601	0.581836	0.80457
49	S	0.442166	0.55675	0.717478
50	C	0.491662	0.508179	0.816622
51	C	0.513966	0.486293	0.846393
52	C	0.562571	0.438603	0.919653
53	H	0.596968	0.404846	0.291611
54	H	0.513881	0.486379	0.330654
55	H	0.475859	0.523688	0.279705
56	H	0.44046	0.558424	0.232572
57	H	0.40303	0.595153	0.70839
58	H	0.486117	0.513619	0.669347
59	H	0.524139	0.47631	0.720295
60	H	0.559541	0.441577	0.767429
61	C	0.581217	0.163538	0
62	C	0.581177	0.163454	0.195431
63	S	0.556159	0.113283	0.282522
64	C	0.545043	0.090995	0.057086
65	C	0.521915	0.044615	0.030406
66	C	0.507717	0.016144	0.183379
67	C	0.485888	0.972371	0.153608
68	C	0.477201	0.95495	0.969594
69	C	0.454073	0.90857	0.942914
70	C	0.438323	0.876987	0.080347
71	C	0.417898	0.836028	0
72	C	0.417939	0.836111	0.80457
73	S	0.442959	0.886283	0.717478
74	C	0.4914	0.983421	0.816622
75	C	0.513228	0.027195	0.846393
76	C	0.560792	0.122578	0.919653
77	H	0.594459	0.190088	0.291611
78	H	0.513142	0.027025	0.330654
79	H	0.475932	0.952406	0.279705
80	H	0.441289	0.882934	0.232572
81	H	0.404658	0.809478	0.70839
82	H	0.485974	0.972541	0.669347
83	H	0.523184	0.047159	0.720295
84	H	0.557825	0.116631	0.767429
85	C	0.834682	0.417687	0
86	C	0.834766	0.41773	0.195431
87	S	0.88535	0.442817	0.282522
88	C	0.907821	0.453959	0.057086
89	C	0.954582	0.477149	0.030406
90	C	0.983287	0.491384	0.183379
91	C	0.02742	0.513271	0.153608
92	C	0.044984	0.521981	0.969594
93	C	0.091745	0.545171	0.942914
94	C	0.123588	0.560963	0.080347
95	C	0.164884	0.581442	0
96	C	0.1648	0.5814	0.80457
97	S	0.114216	0.556315	0.717478
98	C	0.016279	0.507747	0.816622
99	C	0.972146	0.48586	0.846393
100	C	0.875978	0.438166	0.919653
101	H	0.807914	0.404414	0.291611
102	H	0.972317	0.485944	0.330654
103	H	0.047549	0.523253	0.279705
104	H	0.117592	0.557989	0.232572
105	H	0.191653	0.594717	0.70839
106	H	0.027249	0.513187	0.669347
107	H	0.952017	0.475878	0.720295
108	H	0.881974	0.441139	0.767429
