data_C78H39N9O6S12_2023-05-13_09:37:03
#******************************************
#
# CIF file created by Zeo++
# Zeo++ is an open source package to
# analyze microporous materials
#
#*******************************************

_cell_length_a		45.8156   
_cell_length_b		46.1141   
_cell_length_c		7   
_cell_angle_alpha		90   
_cell_angle_beta		90   
_cell_angle_gamma		119.717   

_symmetry_space_group_name_H-M		'P1'
_symmetry_Int_Tables_number		1
_symmetry_cell_setting		Monoclinic

loop_
_symmetry_equiv_pos_as_xyz
'+x,+y,+z'

loop_
_atom_site_label
_atom_site_type_symbol
_atom_site_fract_x
_atom_site_fract_y
_atom_site_fract_z
1	C	0.367159	0.673732	0.999995
2	O	0.396815	0.678928	0.999991
3	C	0.340371	0.639012	0.999998
4	C	0.345595	0.61342	0
5	N	0.378791	0.619405	0
6	C	0.306075	0.63285	3e-06
7	O	0.281999	0.602924	5e-06
8	C	0.297817	0.659551	6e-06
9	C	0.266256	0.653108	5e-06
10	N	0.240191	0.61906	0
11	C	0.325894	0.693994	4e-06
12	O	0.31933	0.717085	7e-06
13	C	0.360742	0.701704	0.999999
14	C	0.385493	0.733125	0.999998
15	N	0.380496	0.761018	0
16	H	0.325087	0.588507	1e-06
17	H	0.259585	0.672233	8e-06
18	H	0.410546	0.737612	0.999997
19	C	0.632841	0.326268	0.999995
20	O	0.603185	0.321072	0.999991
21	C	0.659629	0.360988	0.999998
22	C	0.654405	0.38658	0
23	N	0.621209	0.380595	0
24	C	0.693925	0.36715	3e-06
25	O	0.718001	0.397076	5e-06
26	C	0.702183	0.340449	6e-06
27	C	0.733744	0.346892	5e-06
28	N	0.759809	0.38094	0
29	C	0.674106	0.306006	4e-06
30	O	0.68067	0.282915	7e-06
31	C	0.639258	0.298296	0.999999
32	C	0.614507	0.266875	0.999998
33	N	0.619504	0.238982	0
34	H	0.674913	0.411493	1e-06
35	H	0.740415	0.327767	8e-06
36	H	0.589454	0.262388	0.999997
37	C	0.399068	0.59943	0
38	C	0.412339	0.586375	0.873918
39	C	0.428198	0.570756	0.972386
40	C	0.426446	0.572467	0.169709
41	C	0.439691	0.559418	0.313419
42	C	0.437947	0.561133	0.510342
43	C	0.453812	0.545504	0.6085
44	C	0.467311	0.532207	0.4842
45	C	0.48634	0.51346	0.54649
46	C	0.492068	0.507816	0.732072
47	N	0.509449	0.490694	0.727258
48	C	0.515127	0.485102	0.541162
49	C	0.532839	0.467654	0.491186
50	C	0.546604	0.454096	0.612924
51	C	0.562406	0.438529	0.513428
52	C	0.560529	0.440376	0.316949
53	C	0.573676	0.427423	0.172094
54	C	0.571798	0.429277	0.974926
55	C	0.587586	0.413722	0.87508
56	C	0.600932	0.40057	0
57	S	0.594893	0.406518	0.2316
58	S	0.5394	0.461189	0.257844
59	C	0.500812	0.499206	0.426485
60	S	0.460817	0.538607	0.252209
61	S	0.405259	0.593319	0.231065
62	H	0.410975	0.587728	0.719991
63	H	0.440324	0.558825	0.899568
64	H	0.425848	0.573052	0.583474
65	H	0.455032	0.5443	0.762497
66	H	0.485443	0.51434	0.867259
67	H	0.516975	0.483278	0.843991
68	H	0.545698	0.45499	0.767164
69	H	0.57456	0.426558	0.58545
70	H	0.559631	0.441266	0.903153
71	H	0.58885	0.412478	0.721035
72	H	0.500777	0.499241	0.271859
73	C	0.40043	0.800968	0
74	C	0.413457	0.827097	0.873918
75	C	0.429043	0.858339	0.972386
76	C	0.427335	0.854901	0.169709
77	C	0.440357	0.880999	0.313419
78	C	0.438645	0.877565	0.510342
79	C	0.454242	0.908823	0.6085
80	C	0.467511	0.935418	0.4842
81	C	0.486218	0.972911	0.54649
82	C	0.491851	0.984198	0.732072
83	N	0.508937	0.018442	0.727258
84	C	0.514517	0.029627	0.541162
85	C	0.531928	0.064523	0.491186
86	C	0.545457	0.091641	0.612924
87	C	0.560992	0.122776	0.513428
88	C	0.559149	0.119079	0.316949
89	C	0.572074	0.144984	0.172094
90	C	0.570225	0.14128	0.974926
91	C	0.585747	0.172389	0.87508
92	C	0.598871	0.198687	0
93	S	0.592936	0.18679	0.2316
94	S	0.538379	0.077452	0.257844
95	C	0.500443	0.001422	0.426485
96	S	0.461124	0.92262	0.252209
97	S	0.406528	0.813178	0.231065
98	H	0.412106	0.8244	0.719991
99	H	0.440949	0.882216	0.899568
100	H	0.426752	0.853727	0.583474
101	H	0.455443	0.911229	0.762497
102	H	0.48534	0.971147	0.867259
103	H	0.516338	0.033273	0.843991
104	H	0.544565	0.089855	0.767164
105	H	0.572938	0.14672	0.58545
106	H	0.558261	0.117306	0.903153
107	H	0.586988	0.174877	0.721035
108	H	0.500407	0.001352	0.271859
109	C	0.19998	0.599084	0
110	C	0.173682	0.586011	0.873918
111	C	0.142237	0.570388	0.972386
112	C	0.145697	0.572115	0.169709
113	C	0.11943	0.559066	0.313419
114	C	0.122886	0.560784	0.510342
115	C	0.091425	0.545156	0.6085
116	C	0.064656	0.531857	0.4842
117	C	0.026919	0.513111	0.54649
118	C	0.015559	0.507469	0.732072
119	N	0.981092	0.490347	0.727258
120	C	0.969835	0.484753	0.541162
121	C	0.934711	0.467305	0.491186
122	C	0.907417	0.453745	0.612924
123	C	0.87608	0.438177	0.513428
124	C	0.879801	0.440027	0.316949
125	C	0.853727	0.427075	0.172094
126	C	0.857455	0.428925	0.974926
127	C	0.826145	0.413372	0.87508
128	C	0.799675	0.400225	0
129	S	0.81165	0.406174	0.2316
130	S	0.921699	0.460842	0.257844
131	C	0.998223	0.498855	0.426485
132	S	0.077538	0.538255	0.252209
133	S	0.187691	0.592986	0.231065
134	H	0.176397	0.587354	0.719991
135	H	0.118205	0.558442	0.899568
136	H	0.146879	0.572703	0.583474
137	H	0.089003	0.543953	0.762497
138	H	0.028695	0.513995	0.867259
139	H	0.966165	0.482932	0.843991
140	H	0.909215	0.454637	0.767164
141	H	0.85198	0.426205	0.58545
142	H	0.881586	0.440911	0.903153
143	H	0.82364	0.412127	0.721035
144	H	0.998293	0.498889	0.271859
