data_C84H42N6O6S12_2023-05-28_13:15:44
#******************************************
#
# CIF file created by Zeo++
# Zeo++ is an open source package to
# analyze microporous materials
#
#*******************************************

_cell_length_a		49.4348   
_cell_length_b		49.7333   
_cell_length_c		7   
_cell_angle_alpha		90   
_cell_angle_beta		90   
_cell_angle_gamma		119.738   

_symmetry_space_group_name_H-M		'P1'
_symmetry_Int_Tables_number		1
_symmetry_cell_setting		Monoclinic

loop_
_symmetry_equiv_pos_as_xyz
'+x,+y,+z'

loop_
_atom_site_label
_atom_site_type_symbol
_atom_site_fract_x
_atom_site_fract_y
_atom_site_fract_z
1	C	0.364685	0.673219	0.999995
2	O	0.392172	0.678038	0.999991
3	C	0.339845	0.641019	0.999998
4	C	0.344676	0.617285	0
5	N	0.375445	0.622835	0
6	C	0.308057	0.635304	3e-06
7	O	0.285733	0.607551	5e-06
8	C	0.300414	0.660068	6e-06
9	C	0.271162	0.654092	5e-06
10	N	0.246992	0.622515	0
11	C	0.32645	0.69201	4e-06
12	O	0.320375	0.713425	7e-06
13	C	0.358749	0.699161	0.999999
14	C	0.3817	0.728302	0.999998
15	N	0.37708	0.75417	0
16	H	0.32566	0.59418	1e-06
17	H	0.264987	0.671829	8e-06
18	H	0.404921	0.732463	0.999997
19	C	0.635315	0.326781	0.999995
20	O	0.607828	0.321962	0.999991
21	C	0.660155	0.358981	0.999998
22	C	0.655324	0.382715	0
23	N	0.624555	0.377165	0
24	C	0.691943	0.364696	3e-06
25	O	0.714267	0.392449	5e-06
26	C	0.699586	0.339932	6e-06
27	C	0.728838	0.345908	5e-06
28	N	0.753008	0.377485	0
29	C	0.67355	0.30799	4e-06
30	O	0.679625	0.286575	7e-06
31	C	0.641251	0.300839	0.999999
32	C	0.6183	0.271698	0.999998
33	N	0.62292	0.24583	0
34	H	0.67434	0.40582	1e-06
35	H	0.735013	0.328171	8e-06
36	H	0.595079	0.267537	0.999997
37	C	0.60577	0.39569	0
38	C	0.596421	0.404912	0.840942
39	C	0.580188	0.42092	0.892275
40	C	0.577752	0.423321	0.088359
41	C	0.562946	0.437921	0.190808
42	C	0.560527	0.440304	0.385923
43	C	0.544293	0.456313	0.436549
44	C	0.534326	0.466145	0.280194
45	C	0.516902	0.483329	0.275602
46	C	0.508249	0.491863	0.445956
47	C	0.491749	0.508135	0.445956
48	C	0.483095	0.516668	0.275602
49	C	0.46567	0.533852	0.280194
50	C	0.455698	0.543679	0.43655
51	C	0.439465	0.559689	0.385923
52	C	0.437052	0.562076	0.190808
53	C	0.422247	0.576679	0.088359
54	C	0.419815	0.579083	0.892275
55	C	0.403583	0.595091	0.840942
56	C	0.39423	0.60431	0
57	S	0.404475	0.594201	0.20669
58	S	0.454733	0.544646	0.073588
59	C	0.491744	0.508137	0.105253
60	C	0.508251	0.491858	0.105253
61	S	0.54527	0.455356	0.073588
62	S	0.595522	0.405795	0.20669
63	H	0.600773	0.400621	0.695585
64	H	0.570787	0.430192	0.78799
65	H	0.569893	0.431065	0.490617
66	H	0.540331	0.460218	0.583469
67	H	0.514099	0.486096	0.583929
68	H	0.485901	0.513904	0.583928
69	H	0.459656	0.53977	0.583469
70	H	0.430096	0.568924	0.490617
71	H	0.429218	0.569813	0.78799
72	H	0.399233	0.599384	0.695585
73	H	0.485949	0.513851	0.966852
74	H	0.514045	0.486143	0.966852
75	C	0.603783	0.20846	0
76	C	0.594579	0.190017	0.840942
77	C	0.578602	0.158001	0.892275
78	C	0.576206	0.153198	0.088359
79	C	0.561634	0.123996	0.190808
80	C	0.559256	0.119228	0.385923
81	C	0.543278	0.087209	0.436549
82	C	0.533465	0.067548	0.280194
83	C	0.516314	0.033179	0.275602
84	C	0.507797	0.016113	0.445956
85	C	0.491556	0.983568	0.445956
86	C	0.48304	0.966501	0.275602
87	C	0.46589	0.932133	0.280194
88	C	0.456082	0.912471	0.43655
89	C	0.440103	0.880453	0.385923
90	C	0.43772	0.875685	0.190808
91	C	0.423147	0.846482	0.088359
92	C	0.420747	0.84168	0.892275
93	C	0.40477	0.809663	0.840942
94	C	0.395569	0.791221	0
95	S	0.405658	0.811433	0.20669
96	S	0.455117	0.910552	0.073588
97	C	0.491554	0.983561	0.105253
98	C	0.507802	0.01612	0.105253
99	S	0.544233	0.089128	0.073588
100	S	0.593697	0.188248	0.20669
101	H	0.598861	0.1986	0.695585
102	H	0.569348	0.139458	0.78799
103	H	0.568477	0.137704	0.490617
104	H	0.539381	0.079397	0.583469
105	H	0.513553	0.027648	0.583929
106	H	0.485799	0.972032	0.583928
107	H	0.459984	0.920284	0.583469
108	H	0.430886	0.861977	0.490617
109	H	0.429999	0.860223	0.78799
110	H	0.400485	0.80108	0.695585
111	H	0.485852	0.972132	0.966852
112	H	0.513506	0.027548	0.966852
113	C	0.789964	0.39537	0
114	C	0.808517	0.404591	0.840942
115	C	0.840727	0.420599	0.892275
116	C	0.845558	0.423001	0.088359
117	C	0.874937	0.437603	0.190808
118	C	0.879733	0.439989	0.385923
119	C	0.911945	0.455998	0.436549
120	C	0.931725	0.465827	0.280194
121	C	0.9663	0.483011	0.275602
122	C	0.98347	0.491544	0.445956
123	C	0.016211	0.507817	0.445956
124	C	0.03338	0.516351	0.275602
125	C	0.067956	0.533536	0.280194
126	C	0.087736	0.54337	0.43655
127	C	0.119947	0.559379	0.385923
128	C	0.124744	0.561759	0.190808
129	C	0.154122	0.576359	0.088359
130	C	0.158954	0.578758	0.892275
131	C	0.191164	0.594766	0.840942
132	C	0.209717	0.60399	0
133	S	0.189384	0.593886	0.20669
134	S	0.089666	0.544322	0.073588
135	C	0.016218	0.507822	0.105253
136	C	0.983463	0.491542	0.105253
137	S	0.910014	0.455035	0.073588
138	S	0.810297	0.405477	0.20669
139	H	0.799882	0.400298	0.695585
140	H	0.859381	0.42987	0.78799
141	H	0.861146	0.430752	0.490617
142	H	0.919804	0.459906	0.583469
143	H	0.971865	0.485776	0.583929
144	H	0.027816	0.513584	0.583928
145	H	0.079876	0.539467	0.583469
146	H	0.138535	0.568619	0.490617
147	H	0.140299	0.569485	0.78799
148	H	0.199798	0.599056	0.695585
149	H	0.027716	0.513537	0.966852
150	H	0.971965	0.485829	0.966852
