data_C108H48N6O6S24_2023-05-13_05:44:02
#******************************************
#
# CIF file created by Zeo++
# Zeo++ is an open source package to
# analyze microporous materials
#
#*******************************************

_cell_length_a		64.7891   
_cell_length_b		65.0875   
_cell_length_c		7   
_cell_angle_alpha		90   
_cell_angle_beta		90   
_cell_angle_gamma		119.8   

_symmetry_space_group_name_H-M		'P1'
_symmetry_Int_Tables_number		1
_symmetry_cell_setting		Monoclinic

loop_
_symmetry_equiv_pos_as_xyz
'+x,+y,+z'

loop_
_atom_site_label
_atom_site_type_symbol
_atom_site_fract_x
_atom_site_fract_y
_atom_site_fract_z
1	C	0.357261	0.671677	0.999995
2	O	0.378239	0.675361	0.999991
3	C	0.338278	0.647057	0.999998
4	C	0.341941	0.628911	0
5	N	0.365423	0.633154	0
6	C	0.314018	0.642688	3e-06
7	O	0.296957	0.621468	5e-06
8	C	0.308209	0.661621	6e-06
9	C	0.285884	0.657052	5e-06
10	N	0.267412	0.63291	0
11	C	0.328105	0.686044	4e-06
12	O	0.323491	0.702417	7e-06
13	C	0.352757	0.691511	0.999999
14	C	0.370297	0.713791	0.999998
15	N	0.366796	0.733569	0
16	H	0.32741	0.611245	1e-06
17	H	0.281189	0.670614	8e-06
18	H	0.388018	0.716973	0.999997
19	C	0.642739	0.328323	0.999995
20	O	0.621761	0.324639	0.999991
21	C	0.661722	0.352943	0.999998
22	C	0.658059	0.371089	0
23	N	0.634577	0.366846	0
24	C	0.685982	0.357312	3e-06
25	O	0.703043	0.378532	5e-06
26	C	0.691791	0.338379	6e-06
27	C	0.714116	0.342948	5e-06
28	N	0.732588	0.36709	0
29	C	0.671895	0.313956	4e-06
30	O	0.676509	0.297583	7e-06
31	C	0.647243	0.308489	0.999999
32	C	0.629703	0.286209	0.999998
33	N	0.633204	0.266431	0
34	H	0.67259	0.388755	1e-06
35	H	0.718811	0.329386	8e-06
36	H	0.611982	0.283027	0.999997
37	C	0.620261	0.38101	0
38	C	0.608282	0.387233	0.871847
39	C	0.595628	0.39709	0.966359
40	C	0.579956	0.406156	0.864114
41	C	0.576676	0.405688	0.669531
42	C	0.561612	0.414979	0.617159
43	C	0.553798	0.422374	0.772741
44	C	0.538168	0.432324	0.768225
45	C	0.522432	0.429645	0.624086
46	C	0.509677	0.441839	0.662187
47	C	0.515817	0.453706	0.834956
48	C	0.506287	0.467874	0.914362
49	C	0.495779	0.478356	0.810987
50	C	0.487978	0.49081	0.931879
51	C	0.492553	0.489604	0.119983
52	C	0.484776	0.502084	0.240835
53	C	0.474242	0.512607	0.137952
54	C	0.464385	0.526531	0.218022
55	C	0.46269	0.530684	0.409752
56	C	0.452175	0.545138	0.441958
57	C	0.445839	0.551841	0.274586
58	C	0.435006	0.566595	0.257844
59	C	0.435473	0.582346	0.393032
60	C	0.42294	0.594134	0.3338
61	C	0.413109	0.587025	0.154908
62	C	0.398213	0.596804	0.04997
63	C	0.388466	0.589345	0.870533
64	S	0.373291	0.6032	0.794871
65	C	0.379739	0.61899	0
66	C	0.393066	0.614178	0.125455
67	S	0.419041	0.566339	0.061021
68	S	0.45302	0.540493	0.081066
69	S	0.473894	0.507306	0.896011
70	S	0.506596	0.473048	0.156154
71	S	0.537232	0.449882	0.946877
72	S	0.564963	0.417746	0.980742
73	C	0.598706	0.397812	0.161965
74	S	0.616692	0.386718	0.229902
75	H	0.608576	0.384837	0.719093
76	H	0.584538	0.399101	0.567398
77	H	0.556935	0.416237	0.470757
78	H	0.519872	0.419233	0.496409
79	H	0.496442	0.441624	0.566359
80	H	0.493743	0.477427	0.657189
81	H	0.486986	0.503047	0.394423
82	H	0.468638	0.523713	0.524449
83	H	0.449322	0.550142	0.582912
84	H	0.444548	0.585561	0.529041
85	H	0.421439	0.607123	0.420196
86	H	0.389354	0.576461	0.778526
87	H	0.398806	0.622651	0.263379
88	H	0.591411	0.404269	0.270037
89	C	0.618567	0.237858	0
90	C	0.612376	0.219759	0.871847
91	C	0.602544	0.197372	0.966359
92	C	0.593518	0.172774	0.864114
93	C	0.594	0.169981	0.669531
94	C	0.584746	0.145762	0.617159
95	C	0.577363	0.130635	0.772741
96	C	0.567451	0.105198	0.768225
97	C	0.5702	0.092234	0.624086
98	C	0.558025	0.067417	0.662187
99	C	0.546103	0.061699	0.834956
100	C	0.531937	0.03812	0.914362
101	C	0.52147	0.017242	0.810987
102	C	0.509016	0.997089	0.931879
103	C	0.510206	0.002834	0.119983
104	C	0.497725	0.982678	0.240835
105	C	0.487217	0.961733	0.137952
106	C	0.473296	0.938073	0.218022
107	C	0.46914	0.932253	0.409752
108	C	0.454691	0.907412	0.441958
109	C	0.447996	0.894441	0.274586
110	C	0.433247	0.868985	0.257844
111	C	0.417454	0.853762	0.393032
112	C	0.405685	0.82957	0.3338
113	C	0.412852	0.826884	0.154908
114	C	0.403108	0.802346	0.04997
115	C	0.410626	0.800093	0.870533
116	S	0.396796	0.771218	0.794871
117	C	0.380939	0.761897	0
118	C	0.385711	0.779931	0.125455
119	S	0.433569	0.853381	0.061021
120	S	0.459344	0.912878	0.081066
121	S	0.492533	0.966666	0.896011
122	S	0.526748	0.033273	0.156154
123	S	0.549851	0.086781	0.946877
124	S	0.581958	0.146335	0.980742
125	C	0.601808	0.199711	0.161965
126	S	0.612858	0.228626	0.229902
127	H	0.614777	0.222438	0.719093
128	H	0.600572	0.184351	0.567398
129	H	0.583504	0.139864	0.470757
130	H	0.580649	0.100061	0.496409
131	H	0.558294	0.054484	0.566359
132	H	0.52241	0.016145	0.657189
133	H	0.496751	0.983915	0.394423
134	H	0.476105	0.945105	0.524449
135	H	0.449685	0.899593	0.582912
136	H	0.414194	0.859574	0.529041
137	H	0.392669	0.815143	0.420196
138	H	0.423539	0.813807	0.778526
139	H	0.377192	0.777193	0.263379
140	H	0.595364	0.186033	0.270037
141	C	0.760803	0.380765	0
142	C	0.778973	0.392641	0.871847
143	C	0.801459	0.405171	0.966359
144	C	0.826157	0.420703	0.864114
145	C	0.828954	0.423964	0.669531
146	C	0.853273	0.438891	0.617159
147	C	0.868469	0.446624	0.772741
148	C	0.894012	0.462111	0.768225
149	C	0.906999	0.477755	0.624086
150	C	0.931929	0.490376	0.662187
151	C	0.93771	0.484229	0.834956
152	C	0.961407	0.493639	0.914362
153	C	0.982381	0.504035	0.810987
154	C	0.002637	0.511735	0.931879
155	C	0.996872	0.507195	0.119983
156	C	0.01713	0.514871	0.240835
157	C	0.038172	0.525293	0.137952
158	C	0.061949	0.535029	0.218022
159	C	0.067801	0.536696	0.409752
160	C	0.092765	0.547083	0.441958
161	C	0.105796	0.553351	0.274586
162	C	0.131378	0.564053	0.257844
163	C	0.146704	0.563526	0.393032
164	C	0.171005	0.575929	0.3338
165	C	0.173669	0.585723	0.154908
166	C	0.19831	0.600482	0.04997
167	C	0.200539	0.610195	0.870533
168	S	0.229544	0.625215	0.794871
169	C	0.238953	0.618746	0
170	C	0.220854	0.605525	0.125455
171	S	0.147021	0.579914	0.061021
172	S	0.087266	0.546262	0.081066
173	S	0.033204	0.52566	0.896011
174	S	0.966287	0.493311	0.156154
175	S	0.912548	0.46297	0.946877
176	S	0.85271	0.435552	0.980742
177	C	0.799116	0.40211	0.161965
178	S	0.770082	0.384288	0.229902
179	H	0.776278	0.392358	0.719093
180	H	0.814521	0.41618	0.567398
181	H	0.859192	0.443532	0.470757
182	H	0.89911	0.480339	0.496409
183	H	0.944894	0.503525	0.566359
184	H	0.983477	0.506062	0.657189
185	H	0.015894	0.512671	0.394423
186	H	0.054888	0.530815	0.524449
187	H	0.100624	0.549898	0.582912
188	H	0.140889	0.554498	0.529041
189	H	0.185522	0.577367	0.420196
190	H	0.186737	0.609365	0.778526
191	H	0.223632	0.599789	0.263379
192	H	0.812856	0.409331	0.270037
