data_C105H51N9O6S18_2023-05-15_15:06:43
#******************************************
#
# CIF file created by Zeo++
# Zeo++ is an open source package to
# analyze microporous materials
#
#*******************************************

_cell_length_a		62.3936   
_cell_length_b		62.692   
_cell_length_c		7   
_cell_angle_alpha		90   
_cell_angle_beta		90   
_cell_angle_gamma		119.792   

_symmetry_space_group_name_H-M		'P1'
_symmetry_Int_Tables_number		1
_symmetry_cell_setting		Monoclinic

loop_
_symmetry_equiv_pos_as_xyz
'+x,+y,+z'

loop_
_atom_site_label
_atom_site_type_symbol
_atom_site_fract_x
_atom_site_fract_y
_atom_site_fract_z
1	C	0.358179	0.671868	0.999995
2	O	0.379961	0.675692	0.999991
3	C	0.33847	0.64631	0.999998
4	C	0.342278	0.627471	0
5	N	0.366661	0.631877	0
6	C	0.31328	0.641773	3e-06
7	O	0.295568	0.619745	5e-06
8	C	0.307246	0.661429	6e-06
9	C	0.284064	0.656686	5e-06
10	N	0.264886	0.631622	0
11	C	0.327902	0.686783	4e-06
12	O	0.323107	0.70378	7e-06
13	C	0.353499	0.692458	0.999999
14	C	0.371708	0.715588	0.999998
15	N	0.36807	0.73612	0
16	H	0.327191	0.609132	1e-06
17	H	0.279186	0.670764	8e-06
18	H	0.39011	0.718891	0.999997
19	C	0.641821	0.328132	0.999995
20	O	0.620039	0.324308	0.999991
21	C	0.66153	0.35369	0.999998
22	C	0.657722	0.372529	0
23	N	0.633339	0.368123	0
24	C	0.68672	0.358227	3e-06
25	O	0.704432	0.380255	5e-06
26	C	0.692754	0.338571	6e-06
27	C	0.715936	0.343314	5e-06
28	N	0.735114	0.368378	0
29	C	0.672098	0.313217	4e-06
30	O	0.676893	0.29622	7e-06
31	C	0.646501	0.307542	0.999999
32	C	0.628292	0.284412	0.999998
33	N	0.63193	0.26388	0
34	H	0.672809	0.390868	1e-06
35	H	0.720814	0.329236	8e-06
36	H	0.60989	0.281109	0.999997
37	C	0.381528	0.617172	0
38	C	0.388849	0.601916	0.081577
39	C	0.40813	0.601573	0.973696
40	C	0.420958	0.58608	0.025205
41	C	0.415031	0.570973	0.182208
42	C	0.429591	0.559215	0.193068
43	C	0.446311	0.565576	0.044266
44	C	0.4639	0.557251	0.009508
45	C	0.481003	0.564062	0.863379
46	C	0.495396	0.55215	0.873467
47	C	0.489221	0.536463	0.027898
48	C	0.499632	0.520935	0.084387
49	C	0.506333	0.509139	0.947258
50	C	0.516475	0.494604	0.002796
51	C	0.519882	0.492094	0.196242
52	C	0.530391	0.47737	0.273195
53	C	0.533151	0.472983	0.462988
54	C	0.544139	0.45794	0.487175
55	C	0.549842	0.451069	0.315425
56	C	0.561013	0.435796	0.290193
57	C	0.56075	0.418988	0.419753
58	C	0.573718	0.407023	0.352989
59	C	0.583683	0.415082	0.174247
60	C	0.599131	0.405448	0.06225
61	C	0.609026	0.413887	0.883211
62	S	0.624847	0.399953	0.799042
63	C	0.618472	0.382828	0
64	C	0.6047	0.387249	0.130286
65	S	0.577263	0.436781	0.089162
66	S	0.541399	0.462925	0.127953
67	N	0.513561	0.503356	0.332404
68	C	0.503752	0.51734	0.274088
69	S	0.465769	0.53628	0.156621
70	S	0.443865	0.585938	0.893539
71	C	0.414427	0.616666	0.815452
72	S	0.397203	0.631026	0.798032
73	H	0.380811	0.591579	0.211122
74	H	0.401021	0.568215	0.28599
75	H	0.427643	0.546625	0.306605
76	H	0.483358	0.577098	0.752369
77	H	0.509773	0.555238	0.771948
78	H	0.50356	0.510887	0.795975
79	H	0.521405	0.485535	0.893614
80	H	0.527475	0.480404	0.579948
81	H	0.547818	0.452707	0.625512
82	H	0.551536	0.415177	0.556974
83	H	0.575452	0.393274	0.434342
84	H	0.607912	0.427542	0.796057
85	H	0.598944	0.377948	0.26653
86	H	0.4994	0.52602	0.390621
87	H	0.428238	0.620157	0.70803
88	C	0.382752	0.765528	0
89	C	0.398018	0.787992	0.081577
90	C	0.398281	0.807482	0.973696
91	C	0.413763	0.835651	0.025205
92	C	0.428935	0.844809	0.182208
93	C	0.440664	0.870979	0.193068
94	C	0.434215	0.881249	0.044266
95	C	0.44249	0.907008	0.009508
96	C	0.435589	0.917212	0.863379
97	C	0.447472	0.943369	0.873467
98	C	0.463228	0.952858	0.027898
99	C	0.478754	0.97866	0.084387
100	C	0.490553	0.997062	0.947258
101	C	0.505085	0.02161	0.002796
102	C	0.507587	0.027491	0.196242
103	C	0.522307	0.052591	0.273195
104	C	0.526694	0.059701	0.462988
105	C	0.541732	0.085595	0.487175
106	C	0.548597	0.0981	0.315425
107	C	0.563865	0.124405	0.290193
108	C	0.580719	0.140881	0.419753
109	C	0.592662	0.165676	0.352989
110	C	0.58454	0.167548	0.174247
111	C	0.594135	0.192483	0.06225
112	C	0.585632	0.193907	0.883211
113	S	0.599537	0.223495	0.799042
114	C	0.616735	0.234218	0
115	C	0.612359	0.216137	0.130286
116	S	0.562809	0.139562	0.089162
117	S	0.536745	0.077909	0.127953
118	N	0.496322	0.01	0.332404
119	C	0.482341	0.986332	0.274088
120	S	0.463509	0.929748	0.156621
121	S	0.413809	0.858542	0.893539
122	C	0.383121	0.798707	0.815452
123	S	0.368795	0.767301	0.798032
124	H	0.408416	0.790302	0.211122
125	H	0.431759	0.833641	0.28599
126	H	0.453295	0.88158	0.306605
127	H	0.422508	0.906569	0.752369
128	H	0.444316	0.954572	0.771948
129	H	0.488812	0.992567	0.795975
130	H	0.514158	0.035537	0.893614
131	H	0.519277	0.046674	0.579948
132	H	0.546964	0.094459	0.625512
133	H	0.584579	0.135525	0.556974
134	H	0.606441	0.181089	0.434342
135	H	0.571945	0.179202	0.796057
136	H	0.62171	0.219683	0.26653
137	H	0.473656	0.973366	0.390621
138	H	0.379564	0.808948	0.70803
139	C	0.235337	0.616918	0
140	C	0.212749	0.609711	0.081577
141	C	0.193205	0.590563	0.973696
142	C	0.164896	0.577888	0.025205
143	C	0.155651	0.583837	0.182208
144	C	0.129361	0.569426	0.193068
145	C	0.11909	0.552794	0.044266
146	C	0.093227	0.53536	0.009508
147	C	0.083025	0.518345	0.863379
148	C	0.056748	0.5041	0.873467
149	C	0.047168	0.510298	0.027898
150	C	0.021231	0.500024	0.084387
151	C	0.002731	0.493418	0.947258
152	C	0.978056	0.483406	0.002796
153	C	0.972148	0.480033	0.196242
154	C	0.946919	0.469657	0.273195
155	C	0.939772	0.466935	0.462988
156	C	0.913746	0.456084	0.487175
157	C	0.901178	0.450449	0.315425
158	C	0.874739	0.439418	0.290193
159	C	0.858148	0.43975	0.419753
160	C	0.833236	0.42692	0.352989
161	C	0.831393	0.41699	0.174247
162	C	0.806351	0.401688	0.06225
163	C	0.804959	0.391826	0.883211
164	S	0.775233	0.376171	0.799042
165	C	0.764409	0.382573	0
166	C	0.782557	0.396233	0.130286
167	S	0.859545	0.423275	0.089162
168	S	0.921473	0.458785	0.127953
169	N	0.989734	0.486263	0.332404
170	C	0.013523	0.495947	0.274088
171	S	0.070338	0.533591	0.156621
172	S	0.141943	0.555138	0.893539
173	C	0.202068	0.584246	0.815452
174	S	0.233618	0.601292	0.798032
175	H	0.210389	0.617738	0.211122
176	H	0.166837	0.597763	0.28599
177	H	0.118678	0.571413	0.306605
178	H	0.093752	0.515952	0.752369
179	H	0.045528	0.489809	0.771948
180	H	0.007244	0.496164	0.795975
181	H	0.964053	0.478547	0.893614
182	H	0.952865	0.472541	0.579948
183	H	0.904835	0.452453	0.625512
184	H	0.863502	0.448917	0.556974
185	H	0.817724	0.425256	0.434342
186	H	0.81976	0.392875	0.796057
187	H	0.778962	0.401988	0.26653
188	H	0.02656	0.500233	0.390621
189	H	0.191815	0.570515	0.70803
