data_C84H36N6O6S18_2023-05-11_01:50:08
#******************************************
#
# CIF file created by Zeo++
# Zeo++ is an open source package to
# analyze microporous materials
#
#*******************************************

_cell_length_a		44.506   
_cell_length_b		44.8046   
_cell_length_c		7   
_cell_angle_alpha		90   
_cell_angle_beta		90   
_cell_angle_gamma		119.709   

_symmetry_space_group_name_H-M		'P1'
_symmetry_Int_Tables_number		1
_symmetry_cell_setting		Monoclinic

loop_
_symmetry_equiv_pos_as_xyz
'+x,+y,+z'

loop_
_atom_site_label
_atom_site_type_symbol
_atom_site_fract_x
_atom_site_fract_y
_atom_site_fract_z
1	C	0.368153	0.673938	0.999995
2	O	0.398681	0.679285	0.999991
3	C	0.340583	0.638206	0.999998
4	C	0.345965	0.611869	0
5	N	0.380137	0.618028	0
6	C	0.305278	0.631864	3e-06
7	O	0.2805	0.601067	5e-06
8	C	0.296773	0.659344	6e-06
9	C	0.264285	0.652712	5e-06
10	N	0.237458	0.617672	0
11	C	0.325671	0.69479	4e-06
12	O	0.31891	0.718554	7e-06
13	C	0.361542	0.702725	0.999999
14	C	0.387017	0.735062	0.999998
15	N	0.381868	0.763767	0
16	H	0.324858	0.586229	1e-06
17	H	0.257414	0.672396	8e-06
18	H	0.412806	0.73968	0.999997
19	C	0.631847	0.326062	0.999995
20	O	0.601319	0.320715	0.999991
21	C	0.659417	0.361794	0.999998
22	C	0.654035	0.388131	0
23	N	0.619863	0.381972	0
24	C	0.694722	0.368136	3e-06
25	O	0.7195	0.398933	5e-06
26	C	0.703227	0.340656	6e-06
27	C	0.735715	0.347288	5e-06
28	N	0.762542	0.382328	0
29	C	0.674329	0.30521	4e-06
30	O	0.68109	0.281446	7e-06
31	C	0.638458	0.297275	0.999999
32	C	0.612983	0.264938	0.999998
33	N	0.618132	0.236233	0
34	H	0.675142	0.413771	1e-06
35	H	0.742586	0.327604	8e-06
36	H	0.587194	0.26032	0.999997
37	C	0.401014	0.59747	0
38	C	0.388149	0.610138	0.136159
39	S	0.396859	0.601562	0.361271
40	C	0.417766	0.580975	0.274809
41	C	0.434577	0.564421	0.404816
42	C	0.433939	0.56505	0.601364
43	S	0.454275	0.545025	0.701089
44	C	0.464293	0.535161	0.483332
45	C	0.484708	0.515058	0.450731
46	C	0.492149	0.507731	0.271875
47	S	0.514399	0.485822	0.27218
48	C	0.514686	0.485539	0.522281
49	C	0.497969	0.502	0.595881
50	S	0.498214	0.501758	0.845962
51	C	0.520457	0.479856	0.846326
52	C	0.527932	0.472495	0.667532
53	C	0.548377	0.452364	0.636776
54	C	0.556903	0.443969	0.463187
55	C	0.575484	0.425672	0.482386
56	C	0.588888	0.412474	0.311333
57	C	0.584153	0.417136	0.121072
58	C	0.598986	0.40253	0
59	C	0.614503	0.38725	0.097561
60	S	0.611091	0.39061	0.339172
61	C	0.580485	0.420747	0.671253
62	S	0.562989	0.437975	0.822356
63	C	0.452171	0.547097	0.337
64	C	0.418104	0.580642	0.077657
65	H	0.374162	0.623911	0.115967
66	H	0.422604	0.576211	0.693317
67	H	0.485619	0.51416	0.135069
68	H	0.527011	0.473403	0.983142
69	H	0.550354	0.450417	0.326812
70	H	0.570796	0.430289	0.070928
71	H	0.627613	0.374341	0.040496
72	H	0.593531	0.4079	0.730001
73	H	0.455663	0.543658	0.187369
74	H	0.429928	0.568999	0.99322
75	C	0.402381	0.804883	0
76	C	0.38974	0.779546	0.136159
77	S	0.398297	0.796698	0.361271
78	C	0.41884	0.837873	0.274809
79	C	0.435358	0.87098	0.404816
80	C	0.434731	0.869723	0.601364
81	S	0.454713	0.909774	0.701089
82	C	0.464555	0.929501	0.483332
83	C	0.484614	0.969706	0.450731
84	C	0.491926	0.98436	0.271875
85	S	0.513787	0.028179	0.27218
86	C	0.51407	0.028745	0.522281
87	C	0.497644	0.995822	0.595881
88	S	0.497885	0.996306	0.845962
89	C	0.51974	0.04011	0.846326
90	C	0.527085	0.054832	0.667532
91	C	0.547173	0.095095	0.636776
92	C	0.55555	0.111885	0.463187
93	C	0.573807	0.148478	0.482386
94	C	0.586977	0.174876	0.311333
95	C	0.582325	0.165551	0.121072
96	C	0.596899	0.194763	0
97	C	0.612146	0.225322	0.097561
98	S	0.608793	0.218602	0.339172
99	C	0.578721	0.158328	0.671253
100	S	0.561531	0.123873	0.822356
101	C	0.452645	0.905629	0.337
102	C	0.419172	0.838538	0.077657
103	H	0.375997	0.752	0.115967
104	H	0.423593	0.847401	0.693317
105	H	0.48551	0.971502	0.135069
106	H	0.52618	0.053017	0.983142
107	H	0.549116	0.098988	0.326812
108	H	0.5692	0.139245	0.070928
109	H	0.625027	0.25114	0.040496
110	H	0.59154	0.184021	0.730001
111	H	0.456076	0.912506	0.187369
112	H	0.43079	0.861825	0.99322
113	C	0.196068	0.597115	0
114	C	0.221574	0.609783	0.136159
115	S	0.204307	0.601206	0.361271
116	C	0.162856	0.580619	0.274809
117	C	0.129528	0.564066	0.404816
118	C	0.130794	0.564694	0.601364
119	S	0.090475	0.544669	0.701089
120	C	0.070615	0.534805	0.483332
121	C	0.030141	0.514703	0.450731
122	C	0.015389	0.507376	0.271875
123	S	0.971277	0.485467	0.27218
124	C	0.970707	0.485184	0.522281
125	C	0.00385	0.501645	0.595881
126	S	0.003363	0.501403	0.845962
127	C	0.959265	0.479501	0.846326
128	C	0.944445	0.47214	0.667532
129	C	0.903912	0.452008	0.636776
130	C	0.88701	0.443613	0.463187
131	C	0.850172	0.425317	0.482386
132	C	0.823598	0.412118	0.311333
133	C	0.832985	0.416781	0.121072
134	C	0.803578	0.402175	0
135	C	0.772813	0.386895	0.097561
136	S	0.779579	0.390255	0.339172
137	C	0.840257	0.420392	0.671253
138	S	0.874942	0.43762	0.822356
139	C	0.094647	0.546742	0.337
140	C	0.162187	0.580287	0.077657
141	H	0.249304	0.623556	0.115967
142	H	0.153265	0.575855	0.693317
143	H	0.028333	0.513805	0.135069
144	H	0.946272	0.473047	0.983142
145	H	0.899993	0.450062	0.326812
146	H	0.859467	0.429933	0.070928
147	H	0.746823	0.373986	0.040496
148	H	0.814391	0.407546	0.730001
149	H	0.087724	0.543303	0.187369
150	H	0.138744	0.568644	0.99322
