data_C96H48N6O6S18_2023-05-13_08:39:49
#******************************************
#
# CIF file created by Zeo++
# Zeo++ is an open source package to
# analyze microporous materials
#
#*******************************************

_cell_length_a		51.124   
_cell_length_b		51.4225   
_cell_length_c		7   
_cell_angle_alpha		90   
_cell_angle_beta		90   
_cell_angle_gamma		119.746   

_symmetry_space_group_name_H-M		'P1'
_symmetry_Int_Tables_number		1
_symmetry_cell_setting		Monoclinic

loop_
_symmetry_equiv_pos_as_xyz
'+x,+y,+z'

loop_
_atom_site_label
_atom_site_type_symbol
_atom_site_fract_x
_atom_site_fract_y
_atom_site_fract_z
1	C	0.36365	0.673005	0.999995
2	O	0.39023	0.677665	0.999991
3	C	0.339626	0.64186	0.999998
4	C	0.344293	0.618903	0
5	N	0.374046	0.624271	0
6	C	0.308887	0.636332	3e-06
7	O	0.287296	0.609488	5e-06
8	C	0.301501	0.660284	6e-06
9	C	0.273214	0.654504	5e-06
10	N	0.249837	0.623962	0
11	C	0.326681	0.69118	4e-06
12	O	0.320811	0.711893	7e-06
13	C	0.357915	0.698096	0.999999
14	C	0.380113	0.726282	0.999998
15	N	0.375649	0.751302	0
16	H	0.325902	0.596555	1e-06
17	H	0.267246	0.67166	8e-06
18	H	0.402567	0.730307	0.999997
19	C	0.63635	0.326995	0.999995
20	O	0.60977	0.322335	0.999991
21	C	0.660374	0.35814	0.999998
22	C	0.655707	0.381097	0
23	N	0.625954	0.375729	0
24	C	0.691113	0.363668	3e-06
25	O	0.712704	0.390512	5e-06
26	C	0.698499	0.339716	6e-06
27	C	0.726786	0.345496	5e-06
28	N	0.750163	0.376038	0
29	C	0.673319	0.30882	4e-06
30	O	0.679189	0.288107	7e-06
31	C	0.642085	0.301904	0.999999
32	C	0.619887	0.273718	0.999998
33	N	0.624351	0.248698	0
34	H	0.674098	0.403445	1e-06
35	H	0.732754	0.32834	8e-06
36	H	0.597433	0.269693	0.999997
37	C	0.607793	0.393647	0
38	C	0.595551	0.405726	0.879544
39	S	0.578916	0.422137	0.004855
40	C	0.588103	0.413072	0.222577
41	C	0.580145	0.420922	0.404306
42	C	0.586644	0.414503	0.584124
43	C	0.575698	0.425302	0.734459
44	C	0.5609	0.439909	0.66865
45	C	0.547212	0.453416	0.784237
46	C	0.546436	0.454182	0.981494
47	C	0.53124	0.469176	0.05156
48	C	0.520414	0.479857	0.908156
49	C	0.504291	0.495767	0.933932
50	C	0.494134	0.505787	0.790711
51	C	0.478122	0.521586	0.82378
52	C	0.469722	0.529877	0.9907
53	C	0.453728	0.545657	0.958117
54	C	0.449947	0.549386	0.766406
55	C	0.434743	0.564387	0.686235
56	C	0.421227	0.577721	0.786761
57	C	0.408175	0.590599	0.665926
58	C	0.411804	0.587019	0.473785
59	C	0.40157	0.597116	0.311353
60	C	0.405241	0.593493	0.118647
61	C	0.392207	0.606353	0
62	C	0.378855	0.619528	0.100108
63	S	0.382116	0.616312	0.340669
64	S	0.431156	0.567926	0.445192
65	S	0.466107	0.533439	0.629524
66	S	0.529259	0.47113	0.689256
67	S	0.56073	0.440083	0.423481
68	C	0.603709	0.397675	0.195831
69	H	0.595455	0.405822	0.725101
70	H	0.598766	0.402538	0.609477
71	H	0.578751	0.422286	0.884283
72	H	0.556283	0.444467	0.07402
73	H	0.528394	0.471986	0.202181
74	H	0.500423	0.499584	0.081275
75	H	0.497859	0.50211	0.642631
76	H	0.474671	0.524995	0.13227
77	H	0.44547	0.553806	0.07265
78	H	0.420519	0.57842	0.941182
79	H	0.396662	0.601957	0.720329
80	H	0.416781	0.582106	0.065215
81	H	0.367386	0.630845	0.045184
82	H	0.611833	0.389659	0.311846
83	C	0.60584	0.212551	0
84	C	0.593783	0.188394	0.879544
85	S	0.577403	0.155571	0.004855
86	C	0.586452	0.1737	0.222577
87	C	0.578616	0.157998	0.404306
88	C	0.585023	0.170829	0.584124
89	C	0.574244	0.14923	0.734459
90	C	0.559664	0.120022	0.66865
91	C	0.546183	0.09301	0.784237
92	C	0.545419	0.091479	0.981494
93	C	0.530452	0.061492	0.05156
94	C	0.519791	0.04013	0.908156
95	C	0.503912	0.008312	0.933932
96	C	0.493911	0.988271	0.790711
97	C	0.478141	0.956673	0.82378
98	C	0.469866	0.940095	0.9907
99	C	0.454116	0.908535	0.958117
100	C	0.450394	0.901075	0.766406
101	C	0.435421	0.871073	0.686235
102	C	0.422112	0.844403	0.786761
103	C	0.409258	0.818647	0.665926
104	C	0.412832	0.825809	0.473785
105	C	0.402753	0.805614	0.311353
106	C	0.40637	0.812859	0.118647
107	C	0.393534	0.787139	0
108	C	0.380383	0.76079	0.100108
109	S	0.383594	0.767224	0.340669
110	S	0.431889	0.863996	0.445192
111	S	0.466311	0.932966	0.629524
112	S	0.528503	0.057583	0.689256
113	S	0.559491	0.11968	0.423481
114	C	0.601819	0.204494	0.195831
115	H	0.593688	0.188203	0.725101
116	H	0.596965	0.194754	0.609477
117	H	0.577254	0.155258	0.884283
118	H	0.555115	0.11091	0.07402
119	H	0.527648	0.055874	0.202181
120	H	0.500102	0.000678	0.081275
121	H	0.49758	0.995623	0.642631
122	H	0.474738	0.949859	0.13227
123	H	0.445982	0.892238	0.07265
124	H	0.421414	0.843006	0.941182
125	H	0.397921	0.795931	0.720329
126	H	0.417735	0.835632	0.065215
127	H	0.369088	0.738158	0.045184
128	H	0.60982	0.220526	0.311846
129	C	0.7859	0.393337	0
130	C	0.810198	0.405416	0.879544
131	S	0.843213	0.421828	0.004855
132	C	0.824978	0.412764	0.222577
133	C	0.840771	0.420616	0.404306
134	C	0.827865	0.414203	0.584124
135	C	0.84959	0.425003	0.734459
136	C	0.878968	0.439604	0.66865
137	C	0.906138	0.453109	0.784237
138	C	0.907677	0.453874	0.981494
139	C	0.93784	0.468868	0.05156
140	C	0.959326	0.479549	0.908156
141	C	0.99133	0.495457	0.933932
142	C	0.011487	0.505478	0.790711
143	C	0.043269	0.521276	0.82378
144	C	0.059944	0.529564	0.9907
145	C	0.091688	0.545344	0.958117
146	C	0.099191	0.549075	0.766406
147	C	0.129369	0.564076	0.686235
148	C	0.156194	0.577411	0.786761
149	C	0.1821	0.590289	0.665926
150	C	0.174896	0.586708	0.473785
151	C	0.195209	0.596805	0.311353
152	C	0.187922	0.593184	0.118647
153	C	0.213791	0.606043	0
154	C	0.240294	0.619217	0.100108
155	S	0.233822	0.616	0.340669
156	S	0.136487	0.567615	0.445192
157	S	0.067114	0.53313	0.629524
158	S	0.941771	0.470823	0.689256
159	S	0.879312	0.439772	0.423481
160	C	0.794005	0.397367	0.195831
161	H	0.81039	0.405511	0.725101
162	H	0.803801	0.402243	0.609477
163	H	0.843527	0.421991	0.884283
164	H	0.888134	0.444159	0.07402
165	H	0.94349	0.471676	0.202181
166	H	0.999008	0.499273	0.081275
167	H	0.004092	0.501802	0.642631
168	H	0.050123	0.524681	0.13227
169	H	0.10808	0.553492	0.07265
170	H	0.157599	0.57811	0.941182
171	H	0.204949	0.601648	0.720329
172	H	0.165016	0.581798	0.065215
173	H	0.263058	0.630533	0.045184
174	H	0.777879	0.389351	0.311846
