data_C81H39N9O6S12_2023-05-12_18:17:21
#******************************************
#
# CIF file created by Zeo++
# Zeo++ is an open source package to
# analyze microporous materials
#
#*******************************************

_cell_length_a		49.1836   
_cell_length_b		49.4821   
_cell_length_c		7   
_cell_angle_alpha		90   
_cell_angle_beta		90   
_cell_angle_gamma		119.736   

_symmetry_space_group_name_H-M		'P1'
_symmetry_Int_Tables_number		1
_symmetry_cell_setting		Monoclinic

loop_
_symmetry_equiv_pos_as_xyz
'+x,+y,+z'

loop_
_atom_site_label
_atom_site_type_symbol
_atom_site_fract_x
_atom_site_fract_y
_atom_site_fract_z
1	C	0.364845	0.673253	0.999995
2	O	0.392472	0.678095	0.999991
3	C	0.339879	0.64089	0.999998
4	C	0.344736	0.617035	0
5	N	0.375661	0.622613	0
6	C	0.307929	0.635145	3e-06
7	O	0.285492	0.607251	5e-06
8	C	0.300246	0.660034	6e-06
9	C	0.270845	0.654028	5e-06
10	N	0.246552	0.622292	0
11	C	0.326414	0.692139	4e-06
12	O	0.320308	0.713662	7e-06
13	C	0.358878	0.699325	0.999999
14	C	0.381946	0.728614	0.999998
15	N	0.377301	0.754613	0
16	H	0.325623	0.593813	1e-06
17	H	0.264637	0.671855	8e-06
18	H	0.405285	0.732796	0.999997
19	C	0.635155	0.326747	0.999995
20	O	0.607528	0.321905	0.999991
21	C	0.660121	0.35911	0.999998
22	C	0.655264	0.382965	0
23	N	0.624339	0.377387	0
24	C	0.692071	0.364855	3e-06
25	O	0.714508	0.392749	5e-06
26	C	0.699754	0.339966	6e-06
27	C	0.729155	0.345972	5e-06
28	N	0.753448	0.377708	0
29	C	0.673586	0.307861	4e-06
30	O	0.679692	0.286338	7e-06
31	C	0.641122	0.300675	0.999999
32	C	0.618054	0.271386	0.999998
33	N	0.622699	0.245387	0
34	H	0.674377	0.406187	1e-06
35	H	0.735363	0.328145	8e-06
36	H	0.594715	0.267204	0.999997
37	C	0.605457	0.396006	0
38	C	0.589308	0.411931	0.985614
39	C	0.582008	0.41913	0.169785
40	C	0.563655	0.437228	0.206735
41	C	0.556689	0.444097	0.384134
42	C	0.539863	0.460691	0.372022
43	C	0.534256	0.466221	0.185823
44	C	0.517747	0.482502	0.11681
45	C	0.505095	0.494972	0.24415
46	N	0.489598	0.510254	0.1945
47	C	0.485984	0.513825	0.006462
48	C	0.469035	0.530539	0.957805
49	C	0.461812	0.537666	0.78007
50	C	0.444979	0.554265	0.79068
51	C	0.43967	0.559495	0.976424
52	C	0.421702	0.577211	0.035135
53	C	0.416667	0.582172	0.222792
54	S	0.396482	0.602075	0.240694
55	C	0.394543	0.603994	0
56	C	0.408709	0.590027	0.904927
57	S	0.454916	0.544457	0.13501
58	C	0.497707	0.50227	0.86758
59	C	0.513576	0.486621	0.923429
60	S	0.549932	0.450761	0.02906
61	C	0.593068	0.408222	0.314619
62	S	0.612021	0.389533	0.228422
63	H	0.583056	0.418097	0.850737
64	H	0.563091	0.437784	0.517942
65	H	0.532369	0.468082	0.497352
66	H	0.506873	0.493213	0.397804
67	H	0.468185	0.531386	0.646015
68	H	0.437368	0.561773	0.666533
69	H	0.423715	0.575219	0.351574
70	H	0.40969	0.589064	0.750826
71	H	0.494882	0.505061	0.716558
72	H	0.522459	0.477866	0.811436
73	H	0.591185	0.41008	0.467282
74	C	0.603465	0.207827	0
75	C	0.587571	0.175977	0.985614
76	C	0.580386	0.16158	0.169785
77	C	0.562323	0.125383	0.206735
78	C	0.555468	0.111645	0.384134
79	C	0.538906	0.078458	0.372022
80	C	0.533388	0.0674	0.185823
81	C	0.517138	0.034838	0.11681
82	C	0.504692	0.009892	0.24415
83	N	0.48944	0.979327	0.1945
84	C	0.485876	0.972193	0.006462
85	C	0.469195	0.938766	0.957805
86	C	0.462082	0.924515	0.78007
87	C	0.445515	0.891317	0.79068
88	C	0.440295	0.880851	0.976424
89	C	0.422614	0.845416	0.035135
90	C	0.417663	0.835491	0.222792
91	S	0.397799	0.795682	0.240694
92	C	0.395884	0.791851	0
93	C	0.409823	0.819787	0.904927
94	S	0.455304	0.910924	0.13501
95	C	0.497408	0.995308	0.86758
96	C	0.513027	0.026606	0.923429
97	S	0.548817	0.098318	0.02906
98	C	0.591273	0.183394	0.314619
99	S	0.609925	0.220773	0.228422
100	H	0.581417	0.163646	0.850737
101	H	0.561768	0.124271	0.517942
102	H	0.53153	0.063677	0.497352
103	H	0.506448	0.013404	0.397804
104	H	0.46835	0.93708	0.646015
105	H	0.438022	0.876303	0.666533
106	H	0.424603	0.849394	0.351574
107	H	0.410785	0.821718	0.750826
108	H	0.494623	0.989731	0.716558
109	H	0.521765	0.04412	0.811436
110	H	0.589419	0.179679	0.467282
111	C	0.790591	0.395684	0
112	C	0.822634	0.411609	0.985614
113	C	0.837119	0.418808	0.169785
114	C	0.873535	0.436906	0.206735
115	C	0.887357	0.443775	0.384134
116	C	0.920744	0.460368	0.372022
117	C	0.93187	0.465897	0.185823
118	C	0.964629	0.482178	0.11681
119	C	0.989726	0.494654	0.24415
120	N	0.020476	0.509936	0.1945
121	C	0.027654	0.5135	0.006462
122	C	0.061283	0.530213	0.957805
123	C	0.07562	0.537336	0.78007
124	C	0.10902	0.553936	0.79068
125	C	0.119548	0.559171	0.976424
126	C	0.155198	0.57689	0.035135
127	C	0.165184	0.581855	0.222792
128	S	0.205234	0.60176	0.240694
129	C	0.209088	0.603672	0
130	C	0.180982	0.589703	0.904927
131	S	0.089293	0.544136	0.13501
132	C	0.004399	0.50194	0.86758
133	C	0.972911	0.486291	0.923429
134	S	0.900765	0.450439	0.02906
135	C	0.815173	0.407901	0.314619
136	S	0.777567	0.389211	0.228422
137	H	0.835041	0.417775	0.850737
138	H	0.874654	0.437462	0.517942
139	H	0.935615	0.467758	0.497352
140	H	0.986192	0.4929	0.397804
141	H	0.062979	0.531052	0.646015
142	H	0.124124	0.561441	0.666533
143	H	0.151196	0.574905	0.351574
144	H	0.179039	0.588735	0.750826
145	H	0.010009	0.504725	0.716558
146	H	0.95529	0.477531	0.811436
147	H	0.81891	0.409759	0.467282
