data_C72H36N6O6S6_2023-05-30_07:52:12
#******************************************
#
# CIF file created by Zeo++
# Zeo++ is an open source package to
# analyze microporous materials
#
#*******************************************

_cell_length_a		37.0617   
_cell_length_b		37.3604   
_cell_length_c		7   
_cell_angle_alpha		90   
_cell_angle_beta		90   
_cell_angle_gamma		119.651   

_symmetry_space_group_name_H-M		'P1'
_symmetry_Int_Tables_number		1
_symmetry_cell_setting		Monoclinic

loop_
_symmetry_equiv_pos_as_xyz
'+x,+y,+z'

loop_
_atom_site_label
_atom_site_type_symbol
_atom_site_fract_x
_atom_site_fract_y
_atom_site_fract_z
1	C	0.375136	0.675382	0.999995
2	O	0.411788	0.681791	0.999991
3	C	0.342079	0.632555	0.999998
4	C	0.348579	0.600988	0
5	N	0.389606	0.60837	0
6	C	0.299692	0.624953	3e-06
7	O	0.26998	0.588041	5e-06
8	C	0.289439	0.65789	6e-06
9	C	0.250435	0.649942	5e-06
10	N	0.218269	0.607944	0
11	C	0.324092	0.700375	4e-06
12	O	0.315939	0.728857	7e-06
13	C	0.367158	0.709885	0.999999
14	C	0.397703	0.748643	0.999998
15	N	0.391479	0.783048	0
16	H	0.323268	0.570257	1e-06
17	H	0.242157	0.673533	8e-06
18	H	0.428666	0.754177	0.999997
19	C	0.624864	0.324618	0.999995
20	O	0.588212	0.318209	0.999991
21	C	0.657921	0.367445	0.999998
22	C	0.651421	0.399012	0
23	N	0.610394	0.39163	0
24	C	0.700308	0.375047	3e-06
25	O	0.73002	0.411959	5e-06
26	C	0.710561	0.34211	6e-06
27	C	0.749565	0.350058	5e-06
28	N	0.781731	0.392056	0
29	C	0.675908	0.299625	4e-06
30	O	0.684061	0.271143	7e-06
31	C	0.632842	0.290115	0.999999
32	C	0.602297	0.251357	0.999998
33	N	0.608521	0.216952	0
34	H	0.676732	0.429743	1e-06
35	H	0.757843	0.326467	8e-06
36	H	0.571334	0.245823	0.999997
37	C	0.414706	0.58373	0
38	C	0.381995	0.546057	0.049376
39	C	0.391876	0.514063	0.020168
40	C	0.431685	0.528954	0.950472
41	C	0.453192	0.506097	0.902349
42	C	0.452401	0.494726	0.710714
43	C	0.471654	0.472626	0.655579
44	C	0.491742	0.461537	0.791808
45	C	0.493279	0.472125	0.986982
46	C	0.513709	0.460953	0.127764
47	C	0.533938	0.436823	0.080803
48	C	0.516364	0.394588	0.06331
49	C	0.546342	0.3826	0.015818
50	C	0.585294	0.41627	0
51	S	0.58648	0.461525	0.040923
52	C	0.514479	0.472302	0.319418
53	C	0.49551	0.494684	0.374296
54	C	0.475432	0.505784	0.238057
55	C	0.473647	0.494949	0.043109
56	S	0.456602	0.581363	0.919886
57	H	0.352558	0.541316	0.10325
58	H	0.370892	0.481743	0.049011
59	H	0.436719	0.503233	0.603568
60	H	0.471153	0.46404	0.506856
61	H	0.506631	0.444363	0.742615
62	H	0.483538	0.37334	0.08342
63	H	0.539364	0.35109	0.995068
64	H	0.530055	0.463689	0.42666
65	H	0.496337	0.503596	0.522722
66	H	0.461088	0.523501	0.286754
67	C	0.416055	0.832327	0
68	C	0.454128	0.837399	0.049376
69	C	0.486198	0.878938	0.020168
70	C	0.47096	0.903503	0.950472
71	C	0.493771	0.947461	0.902349
72	C	0.505199	0.957971	0.710714
73	C	0.527264	0.998947	0.655579
74	C	0.538263	0.029817	0.791808
75	C	0.527616	0.020823	0.986982
76	C	0.538696	0.052114	0.127764
77	C	0.562793	0.096071	0.080803
78	C	0.605343	0.120637	0.06331
79	C	0.617175	0.162175	0.015818
80	C	0.58308	0.167248	0
81	S	0.53761	0.123482	0.040923
82	C	0.527289	0.041604	0.319418
83	C	0.504939	0.000627	0.374296
84	C	0.49393	0.969757	0.238057
85	C	0.504826	0.978752	0.043109
86	S	0.418139	0.876094	0.919886
87	H	0.459098	0.813008	0.10325
88	H	0.518813	0.890288	0.049011
89	H	0.496763	0.93402	0.603568
90	H	0.535893	0.006979	0.506856
91	H	0.555411	0.06159	0.742615
92	H	0.626918	0.109287	0.08342
93	H	0.648878	0.186566	0.995068
94	H	0.535832	0.065555	0.42666
95	H	0.495981	0.992596	0.522722
96	H	0.476233	0.937985	0.286754
97	C	0.168594	0.583304	0
98	C	0.163232	0.615905	0.049376
99	C	0.12128	0.606361	0.020168
100	C	0.09671	0.566904	0.950472
101	C	0.052392	0.545803	0.902349
102	C	0.041755	0.546665	0.710714
103	C	0.000438	0.527788	0.655579
104	C	0.96935	0.508007	0.791808
105	C	0.97846	0.506414	0.986982
106	C	0.94695	0.486295	0.127764
107	C	0.902623	0.466467	0.080803
108	C	0.877648	0.484137	0.06331
109	C	0.835838	0.454586	0.015818
110	C	0.830981	0.415844	0
111	S	0.875265	0.414355	0.040923
112	C	0.957587	0.485455	0.319418
113	C	0.998906	0.50405	0.374296
114	C	0.029994	0.52382	0.238057
115	C	0.020882	0.525661	0.043109
116	S	0.124614	0.541905	0.919886
117	H	0.187699	0.645038	0.10325
118	H	0.10965	0.627331	0.049011
119	H	0.065873	0.562108	0.603568
120	H	0.992309	0.528343	0.506856
121	H	0.937313	0.493409	0.742615
122	H	0.888899	0.516735	0.08342
123	H	0.811114	0.461705	0.995068
124	H	0.933468	0.470118	0.42666
125	H	0.007037	0.50317	0.522722
126	H	0.062035	0.537876	0.286754
