data_C114H54N6O6S12_2023-05-15_08:09:10
#******************************************
#
# CIF file created by Zeo++
# Zeo++ is an open source package to
# analyze microporous materials
#
#*******************************************

_cell_length_a		53.8654   
_cell_length_b		54.1638   
_cell_length_c		7   
_cell_angle_alpha		90   
_cell_angle_beta		90   
_cell_angle_gamma		119.759   

_symmetry_space_group_name_H-M		'P1'
_symmetry_Int_Tables_number		1
_symmetry_cell_setting		Monoclinic

loop_
_symmetry_equiv_pos_as_xyz
'+x,+y,+z'

loop_
_atom_site_label
_atom_site_type_symbol
_atom_site_fract_x
_atom_site_fract_y
_atom_site_fract_z
1	C	0.362109	0.672685	0.999995
2	O	0.387337	0.67711	0.999991
3	C	0.339299	0.643112	0.999998
4	C	0.343724	0.621315	0
5	N	0.371964	0.626412	0
6	C	0.310124	0.637863	3e-06
7	O	0.289625	0.612375	5e-06
8	C	0.303119	0.660606	6e-06
9	C	0.276271	0.655118	5e-06
10	N	0.254076	0.626118	0
11	C	0.327026	0.689942	4e-06
12	O	0.32146	0.70961	7e-06
13	C	0.356671	0.696509	0.999999
14	C	0.377747	0.723272	0.999998
15	N	0.373516	0.747029	0
16	H	0.326263	0.600095	1e-06
17	H	0.27061	0.671408	8e-06
18	H	0.399059	0.727094	0.999997
19	C	0.637891	0.327315	0.999995
20	O	0.612663	0.32289	0.999991
21	C	0.660701	0.356888	0.999998
22	C	0.656276	0.378685	0
23	N	0.628036	0.373588	0
24	C	0.689876	0.362137	3e-06
25	O	0.710375	0.387625	5e-06
26	C	0.696881	0.339394	6e-06
27	C	0.723729	0.344882	5e-06
28	N	0.745924	0.373882	0
29	C	0.672974	0.310058	4e-06
30	O	0.67854	0.29039	7e-06
31	C	0.643329	0.303491	0.999999
32	C	0.622253	0.276728	0.999998
33	N	0.626484	0.252971	0
34	H	0.673737	0.399905	1e-06
35	H	0.72939	0.328592	8e-06
36	H	0.600941	0.272906	0.999997
37	C	0.389196	0.609398	0
38	C	0.368326	0.587034	0.100787
39	S	0.380807	0.565942	0.191314
40	C	0.414309	0.586764	0.09444
41	C	0.437462	0.580726	0.119554
42	C	0.466435	0.600126	0.109197
43	C	0.483857	0.587455	0.138882
44	C	0.467758	0.558601	0.170523
45	C	0.477588	0.538192	0.207235
46	C	0.479991	0.531849	0.398124
47	C	0.489705	0.513068	0.443092
48	C	0.49731	0.50029	0.298335
49	C	0.507142	0.481539	0.34416
50	C	0.514832	0.468733	0.200729
51	C	0.513	0.474132	0.005627
52	C	0.520688	0.461503	0.855758
53	C	0.530822	0.44135	0.892859
54	C	0.515009	0.412284	0.915835
55	C	0.532667	0.400019	0.951029
56	C	0.561528	0.419971	0.954258
57	C	0.584865	0.414406	0.985779
58	C	0.584539	0.38905	0.95113
59	C	0.610804	0.390602	0
60	C	0.630621	0.41655	0.07175
61	S	0.617342	0.439383	0.079074
62	S	0.566671	0.453436	0.911427
63	C	0.518247	0.467793	0.664847
64	C	0.508412	0.486478	0.619836
65	C	0.500763	0.499236	0.76454
66	C	0.49088	0.517948	0.718709
67	C	0.483224	0.530785	0.862147
68	C	0.485142	0.525462	0.057283
69	C	0.495107	0.506359	0.104388
70	C	0.502983	0.49319	0.958499
71	S	0.431951	0.547184	0.164858
72	C	0.415584	0.609558	0.995781
73	H	0.346498	0.581939	0.12637
74	H	0.475025	0.622615	0.082581
75	H	0.507028	0.59893	0.136856
76	H	0.474287	0.541615	0.513176
77	H	0.491324	0.508566	0.592595
78	H	0.509018	0.476661	0.492447
79	H	0.522459	0.454368	0.244326
80	H	0.491859	0.400378	0.908564
81	H	0.524319	0.377497	0.974731
82	H	0.566288	0.370386	0.892305
83	H	0.652141	0.423369	0.119948
84	H	0.524066	0.458112	0.549875
85	H	0.506785	0.490969	0.470292
86	H	0.488963	0.522788	0.570396
87	H	0.475547	0.545106	0.818535
88	H	0.434563	0.625419	0.922776
89	C	0.3905	0.781057	0
90	C	0.413035	0.782608	0.100787
91	S	0.434132	0.815979	0.191314
92	C	0.413083	0.828496	0.09444
93	C	0.419027	0.857474	0.119554
94	C	0.399427	0.866912	0.109197
95	C	0.412053	0.896807	0.138882
96	C	0.441075	0.909549	0.170523
97	C	0.4615	0.939611	0.207235
98	C	0.467851	0.948307	0.398124
99	C	0.486643	0.976635	0.443092
100	C	0.499425	0.996896	0.298335
101	C	0.518187	0.025311	0.34416
102	C	0.530995	0.045683	0.200729
103	C	0.525589	0.038493	0.005627
104	C	0.538219	0.058688	0.855758
105	C	0.558387	0.088798	0.892859
106	C	0.587619	0.102035	0.915835
107	C	0.599838	0.131759	0.951029
108	C	0.579684	0.140537	0.954258
109	C	0.585153	0.169226	0.985779
110	C	0.610589	0.194137	0.95113
111	C	0.608906	0.21865	0
112	C	0.58278	0.212487	0.07175
113	S	0.559941	0.176591	0.079074
114	S	0.54609	0.112336	0.911427
115	C	0.531921	0.050006	0.664847
116	C	0.513226	0.021655	0.619836
117	C	0.500465	0.001371	0.76454
118	C	0.481742	0.972944	0.718709
119	C	0.468903	0.952574	0.862147
120	C	0.474233	0.959774	0.057283
121	C	0.493348	0.988671	0.104388
122	C	0.50652	0.00959	0.958499
123	S	0.452701	0.885387	0.164858
124	C	0.390212	0.807076	0.995781
125	H	0.418251	0.766023	0.12637
126	H	0.376827	0.853054	0.082581
127	H	0.40043	0.908375	0.136856
128	H	0.458082	0.932929	0.513176
129	H	0.491152	0.982722	0.592595
130	H	0.523071	0.032026	0.492447
131	H	0.545368	0.067546	0.244326
132	H	0.599675	0.090916	0.908564
133	H	0.62247	0.14589	0.974731
134	H	0.6294	0.194604	0.892305
135	H	0.575836	0.227051	0.119948
136	H	0.541605	0.065414	0.549875
137	H	0.508729	0.015572	0.470292
138	H	0.476897	0.966226	0.570396
139	H	0.454575	0.930706	0.818535
140	H	0.374209	0.810122	0.922776
141	C	0.21986	0.609104	0
142	C	0.218195	0.629918	0.100787
143	S	0.184617	0.617637	0.191314
144	C	0.172164	0.584299	0.09444
145	C	0.143067	0.561359	0.119554
146	C	0.133694	0.532521	0.109197
147	C	0.103645	0.515298	0.138882
148	C	0.090722	0.531409	0.170523
149	C	0.060468	0.521756	0.207235
150	C	0.051714	0.519403	0.398124
151	C	0.023207	0.509856	0.443092
152	C	0.002821	0.502373	0.298335
153	C	0.974227	0.49271	0.34416
154	C	0.953729	0.485143	0.200729
155	C	0.960967	0.486934	0.005627
156	C	0.940649	0.479368	0.855758
157	C	0.910347	0.469411	0.892859
158	C	0.896928	0.48524	0.915835
159	C	0.867051	0.467781	0.951029
160	C	0.858344	0.439052	0.954258
161	C	0.829539	0.415927	0.985779
162	C	0.804428	0.416372	0.95113
163	C	0.779847	0.390308	0
164	C	0.786154	0.370522	0.07175
165	S	0.822273	0.383585	0.079074
166	S	0.886795	0.433787	0.911427
167	C	0.949388	0.481759	0.664847
168	C	0.977918	0.491426	0.619836
169	C	0.998327	0.498952	0.76454
170	C	0.026933	0.508667	0.718709
171	C	0.047429	0.516201	0.862147
172	C	0.040181	0.514323	0.057283
173	C	0.011101	0.504529	0.104388
174	C	0.990053	0.496779	0.958499
175	S	0.114904	0.566988	0.164858
176	C	0.193761	0.582924	0.995781
177	H	0.234807	0.651597	0.12637
178	H	0.147705	0.523891	0.082581
179	H	0.092097	0.492255	0.136856
180	H	0.067187	0.525014	0.513176
181	H	0.01708	0.508272	0.592595
182	H	0.967467	0.490872	0.492447
183	H	0.931729	0.477645	0.244326
184	H	0.908023	0.508265	0.908564
185	H	0.852767	0.476172	0.974731
186	H	0.803868	0.434569	0.892305
187	H	0.771579	0.349139	0.119948
188	H	0.933886	0.476033	0.549875
189	H	0.984042	0.493019	0.470292
190	H	0.033696	0.510545	0.570396
191	H	0.069434	0.523747	0.818535
192	H	0.190783	0.564018	0.922776
