data_C96H48N6O6S12_2023-05-12_00:02:12
#******************************************
#
# CIF file created by Zeo++
# Zeo++ is an open source package to
# analyze microporous materials
#
#*******************************************

_cell_length_a		47.3542   
_cell_length_b		47.6527   
_cell_length_c		7   
_cell_angle_alpha		90   
_cell_angle_beta		90   
_cell_angle_gamma		119.726   

_symmetry_space_group_name_H-M		'P1'
_symmetry_Int_Tables_number		1
_symmetry_cell_setting		Monoclinic

loop_
_symmetry_equiv_pos_as_xyz
'+x,+y,+z'

loop_
_atom_site_label
_atom_site_type_symbol
_atom_site_fract_x
_atom_site_fract_y
_atom_site_fract_z
1	C	0.366061	0.673505	0.999995
2	O	0.394754	0.678533	0.999991
3	C	0.340137	0.639903	0.999998
4	C	0.345187	0.615135	0
5	N	0.377306	0.620927	0
6	C	0.306954	0.633938	3e-06
7	O	0.283656	0.604977	5e-06
8	C	0.298969	0.65978	6e-06
9	C	0.268433	0.653544	5e-06
10	N	0.243209	0.620593	0
11	C	0.326141	0.693114	4e-06
12	O	0.319794	0.715461	7e-06
13	C	0.359858	0.700576	0.999999
14	C	0.38381	0.730986	0.999998
15	N	0.378981	0.75798	0
16	H	0.325341	0.591023	1e-06
17	H	0.261982	0.672054	8e-06
18	H	0.40805	0.735328	0.999997
19	C	0.633939	0.326495	0.999995
20	O	0.605246	0.321467	0.999991
21	C	0.659863	0.360097	0.999998
22	C	0.654813	0.384865	0
23	N	0.622694	0.379073	0
24	C	0.693046	0.366062	3e-06
25	O	0.716344	0.395023	5e-06
26	C	0.701031	0.34022	6e-06
27	C	0.731567	0.346456	5e-06
28	N	0.756791	0.379407	0
29	C	0.673859	0.306886	4e-06
30	O	0.680206	0.284539	7e-06
31	C	0.640142	0.299424	0.999999
32	C	0.61619	0.269014	0.999998
33	N	0.621019	0.24202	0
34	H	0.674659	0.408977	1e-06
35	H	0.738018	0.327946	8e-06
36	H	0.59195	0.264672	0.999997
37	C	0.396921	0.601595	0
38	C	0.394699	0.613156	0.824531
39	S	0.408724	0.598402	0.647804
40	C	0.417652	0.576675	0.807405
41	C	0.43272	0.554854	0.750187
42	C	0.440138	0.551256	0.564587
43	S	0.456147	0.526072	0.547921
44	C	0.453439	0.519806	0.789515
45	C	0.464317	0.498584	0.873744
46	C	0.442375	0.465227	0.871387
47	C	0.450851	0.443828	0.951661
48	C	0.481352	0.455601	0.035353
49	C	0.504357	0.489022	0.041252
50	C	0.535641	0.501376	0.126393
51	C	0.546523	0.480156	0.210597
52	C	0.559571	0.463437	0.119871
53	C	0.567259	0.445122	0.24988
54	C	0.582336	0.42331	0.192631
55	C	0.589908	0.41939	0.007721
56	C	0.603079	0.398405	0
57	C	0.60532	0.386854	0.175465
58	S	0.59129	0.401601	0.352219
59	C	0.559853	0.448724	0.435499
60	S	0.54383	0.473896	0.452194
61	C	0.557581	0.534733	0.128765
62	C	0.549104	0.556133	0.048498
63	C	0.518605	0.544359	0.964794
64	C	0.495601	0.510938	0.958888
65	C	0.44039	0.536527	0.880212
66	C	0.410071	0.580592	0.992298
67	H	0.385642	0.629398	0.790459
68	H	0.437056	0.56203	0.436058
69	H	0.418468	0.455875	0.806826
70	H	0.433779	0.418008	0.949845
71	H	0.487003	0.438035	0.097749
72	H	0.563223	0.464483	0.966765
73	H	0.58623	0.430913	0.884463
74	H	0.614392	0.370625	0.20952
75	H	0.562948	0.437958	0.564023
76	H	0.581487	0.544086	0.193334
77	H	0.566175	0.581953	0.050325
78	H	0.512954	0.561926	0.902399
79	H	0.436728	0.535476	0.033311
80	H	0.413733	0.569058	0.115561
81	C	0.398274	0.796644	0
82	C	0.386683	0.782944	0.824531
83	S	0.401413	0.811517	0.647804
84	C	0.423167	0.841972	0.807405
85	C	0.444983	0.878605	0.750187
86	C	0.448553	0.889535	0.564587
87	S	0.473738	0.930445	0.547921
88	C	0.480041	0.933993	0.789515
89	C	0.501279	0.965878	0.873744
90	C	0.534874	0.977307	0.871387
91	C	0.556303	0.006989	0.951661
92	C	0.54432	0.025507	0.035353
93	C	0.510655	0.015069	0.041252
94	C	0.498085	0.033785	0.126393
95	C	0.51932	0.065673	0.210597
96	C	0.536027	0.095231	0.119871
97	C	0.554365	0.121065	0.24988
98	C	0.576171	0.157698	0.192631
99	C	0.580063	0.1691	0.007721
100	C	0.60105	0.203022	0
101	C	0.61263	0.21673	0.175465
102	S	0.597908	0.188161	0.352219
103	C	0.55079	0.110142	0.435499
104	S	0.525617	0.06923	0.452194
105	C	0.464488	0.022354	0.128765
106	C	0.44306	0.992672	0.048498
107	C	0.455043	0.974156	0.964794
108	C	0.488709	0.984595	0.958888
109	C	0.463333	0.904433	0.880212
110	C	0.419278	0.830563	0.992298
111	H	0.370434	0.757817	0.790459
112	H	0.437757	0.875765	0.436058
113	H	0.544392	0.962916	0.806826
114	H	0.582309	0.015749	0.949845
115	H	0.561918	0.048577	0.097749
116	H	0.534957	0.097809	0.966765
117	H	0.568519	0.153995	0.884463
118	H	0.628866	0.241861	0.20952
119	H	0.561577	0.123917	0.564023
120	H	0.454971	0.036745	0.193334
121	H	0.417054	0.983911	0.050325
122	H	0.437445	0.951086	0.902399
123	H	0.464407	0.901849	0.033311
124	H	0.430833	0.845663	0.115561
125	C	0.204301	0.60126	0
126	C	0.218113	0.603399	0.824531
127	S	0.189358	0.58958	0.647804
128	C	0.158675	0.580852	0.807405
129	C	0.121792	0.56604	0.750187
130	C	0.110804	0.558708	0.564587
131	S	0.06961	0.542981	0.547921
132	C	0.066015	0.545699	0.789515
133	C	0.0339	0.535036	0.873744
134	C	0.022245	0.556964	0.871387
135	C	0.992341	0.548682	0.951661
136	C	0.973823	0.518391	0.035353
137	C	0.984483	0.495409	0.041252
138	C	0.965769	0.464338	0.126393
139	C	0.933652	0.45367	0.210597
140	C	0.903897	0.440832	0.119871
141	C	0.877871	0.433313	0.24988
142	C	0.840988	0.418491	0.192631
143	C	0.829524	0.41101	0.007721
144	C	0.795366	0.398071	0
145	C	0.781546	0.395915	0.175465
146	S	0.810297	0.409737	0.352219
147	C	0.888852	0.440633	0.435499
148	S	0.930048	0.456373	0.452194
149	C	0.977426	0.442411	0.128765
150	C	0.007331	0.450694	0.048498
151	C	0.025847	0.480984	0.964794
152	C	0.015185	0.503965	0.958888
153	C	0.095772	0.558539	0.880212
154	C	0.170146	0.588343	0.992298
155	H	0.243419	0.612285	0.790459
156	H	0.124682	0.561704	0.436058
157	H	0.036636	0.580708	0.806826
158	H	0.983407	0.565743	0.949845
159	H	0.950574	0.512887	0.097749
160	H	0.901315	0.437206	0.966765
161	H	0.844746	0.414591	0.884463
162	H	0.756236	0.387013	0.20952
163	H	0.874969	0.437624	0.564023
164	H	0.963037	0.418668	0.193334
165	H	0.016266	0.433635	0.050325
166	H	0.049096	0.486488	0.902399
167	H	0.098359	0.562174	0.033311
168	H	0.154929	0.584778	0.115561
