data_C78H48N6O6S6_2023-05-12_10:24:20
#******************************************
#
# CIF file created by Zeo++
# Zeo++ is an open source package to
# analyze microporous materials
#
#*******************************************

_cell_length_a		30.1551   
_cell_length_b		30.4538   
_cell_length_c		7   
_cell_angle_alpha		90   
_cell_angle_beta		90   
_cell_angle_gamma		119.572   

_symmetry_space_group_name_H-M		'P1'
_symmetry_Int_Tables_number		1
_symmetry_cell_setting		Monoclinic

loop_
_symmetry_equiv_pos_as_xyz
'+x,+y,+z'

loop_
_atom_site_label
_atom_site_type_symbol
_atom_site_fract_x
_atom_site_fract_y
_atom_site_fract_z
1	C	0.384693	0.67735	0.999995
2	O	0.429727	0.685206	0.999991
3	C	0.344149	0.624852	0.999998
4	C	0.3522	0.586156	0
5	N	0.40261	0.595205	0
6	C	0.292069	0.615534	3e-06
7	O	0.255624	0.570286	5e-06
8	C	0.279403	0.655908	6e-06
9	C	0.231481	0.646165	5e-06
10	N	0.192031	0.594683	0
11	C	0.321909	0.707987	4e-06
12	O	0.311832	0.742901	7e-06
13	C	0.374819	0.719645	0.999999
14	C	0.412284	0.767155	0.999998
15	N	0.404567	0.80933	0
16	H	0.321153	0.548486	1e-06
17	H	0.22126	0.675084	8e-06
18	H	0.450328	0.773939	0.999997
19	C	0.615307	0.32265	0.999995
20	O	0.570273	0.314794	0.999991
21	C	0.655851	0.375148	0.999998
22	C	0.6478	0.413844	0
23	N	0.59739	0.404795	0
24	C	0.707931	0.384466	3e-06
25	O	0.744376	0.429714	5e-06
26	C	0.720597	0.344092	6e-06
27	C	0.768519	0.353835	5e-06
28	N	0.807969	0.405317	0
29	C	0.678091	0.292013	4e-06
30	O	0.688168	0.257099	7e-06
31	C	0.625181	0.280355	0.999999
32	C	0.587716	0.232845	0.999998
33	N	0.595433	0.19067	0
34	H	0.678847	0.451514	1e-06
35	H	0.77874	0.324916	8e-06
36	H	0.549672	0.226061	0.999997
37	C	0.566494	0.434999	0
38	C	0.515118	0.417629	0.992954
39	S	0.495151	0.436457	0.189019
40	C	0.555746	0.467922	0.286498
41	C	0.566763	0.494855	0.462943
42	C	0.531297	0.488376	0.593728
43	C	0.553953	0.522463	0.754405
44	C	0.529772	0.527301	0.924993
45	C	0.483948	0.524239	0.943025
46	C	0.447749	0.51785	0.795512
47	C	0.397076	0.4932	0.824026
48	C	0.369779	0.494141	0.646219
49	C	0.41316	0.524577	0.509898
50	C	0.412074	0.538031	0.315489
51	C	0.450457	0.557225	0.178905
52	C	0.433506	0.565001	0
53	C	0.383109	0.55208	0.999525
54	S	0.355844	0.529929	0.217811
55	C	0.457136	0.538492	0.603408
56	C	0.604656	0.548206	0.727124
57	C	0.618102	0.534128	0.539385
58	C	0.590039	0.463793	0.165807
59	H	0.488242	0.395045	0.883325
60	H	0.490858	0.462033	0.586204
61	H	0.552038	0.533899	0.055151
62	H	0.472031	0.527341	0.087069
63	H	0.377769	0.474507	0.954213
64	H	0.347136	0.512594	0.673846
65	H	0.345107	0.455817	0.592851
66	H	0.488938	0.564804	0.206802
67	H	0.360775	0.554241	0.882869
68	H	0.495206	0.561545	0.547883
69	H	0.632436	0.575778	0.823381
70	H	0.636285	0.566912	0.444505
71	H	0.64343	0.518345	0.560332
72	H	0.630374	0.480824	0.197012
73	C	0.564261	0.129742	0
74	C	0.582169	0.096309	0.992954
75	S	0.563407	0.057955	0.189019
76	C	0.531246	0.086506	0.286498
77	C	0.504068	0.070667	0.462943
78	C	0.510887	0.042121	0.593728
79	C	0.476415	0.030665	0.754405
80	C	0.471758	0.002028	0.924993
81	C	0.475231	0.959883	0.943025
82	C	0.481967	0.930526	0.795512
83	C	0.50719	0.905002	0.824026
84	C	0.506479	0.877155	0.646219
85	C	0.4755	0.889753	0.509898
86	C	0.46198	0.875344	0.315489
87	C	0.442348	0.894159	0.178905
88	C	0.434674	0.869737	0
89	C	0.448101	0.832856	0.999525
90	S	0.47061	0.827935	0.217811
91	C	0.461129	0.919317	0.603408
92	C	0.450092	0.055135	0.727124
93	C	0.464133	0.082349	0.539385
94	C	0.535103	0.12441	0.165807
95	H	0.605111	0.092199	0.883325
96	H	0.537725	0.028367	0.586204
97	H	0.464931	0.017439	0.055151
98	H	0.472214	0.945058	0.087069
99	H	0.526154	0.904498	0.954213
100	H	0.488117	0.836536	0.673846
101	H	0.545229	0.890824	0.592851
102	H	0.434396	0.924586	0.206802
103	H	0.44612	0.808694	0.882869
104	H	0.43762	0.933997	0.547883
105	H	0.422127	0.055189	0.823381
106	H	0.43101	0.067775	0.444505
107	H	0.479787	0.122969	0.560332
108	H	0.517631	0.147295	0.197012
109	C	0.868453	0.434477	0
110	C	0.90192	0.48528	0.992954
111	S	0.94065	0.504806	0.189019
112	C	0.912216	0.44479	0.286498
113	C	0.928376	0.433696	0.462943
114	C	0.957023	0.46872	0.593728
115	C	0.96884	0.446089	0.754405
116	C	0.997677	0.469889	0.924993
117	C	0.040028	0.515096	0.943025
118	C	0.069491	0.550842	0.795512
119	C	0.094942	0.601016	0.824026
120	C	0.12295	0.627921	0.646219
121	C	0.110548	0.584888	0.509898
122	C	0.125153	0.585842	0.315489
123	C	0.106402	0.547833	0.178905
124	C	0.131027	0.564479	0
125	C	0.167998	0.614281	0.999525
126	S	0.172754	0.641353	0.217811
127	C	0.080942	0.541409	0.603408
128	C	0.944459	0.395876	0.727124
129	C	0.916972	0.38274	0.539385
130	C	0.874066	0.411014	0.165807
131	H	0.905855	0.511973	0.883325
132	H	0.970624	0.508818	0.586204
133	H	0.982238	0.447879	0.055151
134	H	0.054962	0.526819	0.087069
135	H	0.095285	0.620212	0.954213
136	H	0.163954	0.650088	0.673846
137	H	0.108871	0.652576	0.592851
138	H	0.075873	0.509827	0.206802
139	H	0.192313	0.636283	0.882869
140	H	0.066382	0.503675	0.547883
141	H	0.944645	0.36825	0.823381
142	H	0.931913	0.364531	0.444505
143	H	0.875991	0.357904	0.560332
144	H	0.851203	0.371099	0.197012
