data_C108H60N12O6S6_2023-05-11_10:30:52
#******************************************
#
# CIF file created by Zeo++
# Zeo++ is an open source package to
# analyze microporous materials
#
#*******************************************

_cell_length_a		42.8357   
_cell_length_b		43.1342   
_cell_length_c		7   
_cell_angle_alpha		90   
_cell_angle_beta		90   
_cell_angle_gamma		119.698   

_symmetry_space_group_name_H-M		'P1'
_symmetry_Int_Tables_number		1
_symmetry_cell_setting		Monoclinic

loop_
_symmetry_equiv_pos_as_xyz
'+x,+y,+z'

loop_
_atom_site_label
_atom_site_type_symbol
_atom_site_fract_x
_atom_site_fract_y
_atom_site_fract_z
1	C	0.369509	0.674219	0.999995
2	O	0.401226	0.679772	0.999991
3	C	0.340872	0.637107	0.999998
4	C	0.34647	0.609753	0
5	N	0.381973	0.61615	0
6	C	0.304193	0.63052	3e-06
7	O	0.278455	0.598534	5e-06
8	C	0.295349	0.659061	6e-06
9	C	0.261596	0.652174	5e-06
10	N	0.233731	0.615781	0
11	C	0.325365	0.695876	4e-06
12	O	0.318335	0.720557	7e-06
13	C	0.362634	0.704117	0.999999
14	C	0.389094	0.737703	0.999998
15	N	0.383737	0.767516	0
16	H	0.324546	0.583123	1e-06
17	H	0.254452	0.672617	8e-06
18	H	0.415888	0.742499	0.999997
19	C	0.630491	0.325781	0.999995
20	O	0.598774	0.320228	0.999991
21	C	0.659128	0.362893	0.999998
22	C	0.65353	0.390247	0
23	N	0.618027	0.38385	0
24	C	0.695807	0.36948	3e-06
25	O	0.721545	0.401466	5e-06
26	C	0.704651	0.340939	6e-06
27	C	0.738404	0.347826	5e-06
28	N	0.766269	0.384219	0
29	C	0.674635	0.304124	4e-06
30	O	0.681665	0.279443	7e-06
31	C	0.637366	0.295883	0.999999
32	C	0.610906	0.262297	0.999998
33	N	0.616263	0.232484	0
34	H	0.675454	0.416877	1e-06
35	H	0.745548	0.327383	8e-06
36	H	0.584112	0.257501	0.999997
37	C	0.59633	0.405201	0
38	C	0.622191	0.435038	0.090627
39	C	0.607774	0.443372	0.254003
40	C	0.571426	0.419714	0.282621
41	C	0.547422	0.418829	0.426736
42	C	0.557702	0.444114	0.56281
43	C	0.527967	0.436614	0.688752
44	C	0.528311	0.457795	0.85331
45	C	0.523165	0.487747	0.835983
46	C	0.516866	0.499187	0.659504
47	C	0.511942	0.528606	0.648564
48	C	0.513133	0.547679	0.813697
49	C	0.508264	0.577905	0.808613
50	C	0.501155	0.591481	0.63155
51	C	0.526711	0.618107	0.527512
52	C	0.510012	0.625073	0.356348
53	C	0.470444	0.598063	0.380022
54	C	0.440647	0.591628	0.262021
55	C	0.404136	0.567897	0.283695
56	C	0.382735	0.569715	0.132421
57	C	0.40367	0.594799	0
58	S	0.447925	0.6159	0.053733
59	C	0.466646	0.579328	0.540747
60	C	0.509763	0.595791	0.977008
61	C	0.516063	0.583225	0.144472
62	N	0.520778	0.554648	0.153915
63	C	0.519472	0.536545	0.992776
64	C	0.524423	0.506629	0.003926
65	N	0.530404	0.49596	0.175823
66	C	0.535162	0.467428	0.187653
67	C	0.534402	0.447654	0.032154
68	C	0.498918	0.406358	0.63171
69	C	0.508092	0.391838	0.459109
70	S	0.555672	0.387281	0.106633
71	H	0.649899	0.45026	0.044339
72	H	0.623701	0.465969	0.346265
73	H	0.583962	0.467262	0.581411
74	H	0.515653	0.485247	0.527727
75	H	0.507187	0.53647	0.508649
76	H	0.555109	0.632556	0.559393
77	H	0.514701	0.652429	0.35886
78	H	0.520826	0.620477	0.224412
79	H	0.39289	0.549804	0.403648
80	H	0.353773	0.553436	0.123457
81	H	0.442032	0.55802	0.599746
82	H	0.506068	0.618913	0.977885
83	H	0.517536	0.59602	0.280392
84	H	0.539777	0.460856	0.330818
85	H	0.538506	0.424948	0.050017
86	H	0.472671	0.394004	0.697594
87	H	0.504262	0.365243	0.488432
88	H	0.491574	0.390676	0.337021
89	C	0.594211	0.189413	0
90	C	0.564101	0.185362	0.090627
91	C	0.555821	0.162805	0.254003
92	C	0.579793	0.150331	0.282621
93	C	0.580828	0.127445	0.426736
94	C	0.555381	0.112492	0.56281
95	C	0.56309	0.090506	0.688752
96	C	0.541825	0.069795	0.85331
97	C	0.511787	0.03493	0.835983
98	C	0.50034	0.017323	0.659504
99	C	0.470835	0.983207	0.648564
100	C	0.45168	0.96543	0.813697
101	C	0.421364	0.930566	0.808613
102	C	0.407779	0.910034	0.63155
103	C	0.380893	0.908872	0.527512
104	C	0.374001	0.885416	0.356348
105	C	0.401357	0.873085	0.380022
106	C	0.407999	0.849981	0.262021
107	C	0.432045	0.837419	0.283695
108	C	0.43035	0.814423	0.132421
109	C	0.40504	0.810219	0
110	S	0.383588	0.833062	0.053733
111	C	0.420189	0.887946	0.540747
112	C	0.4034	0.914273	0.977008
113	C	0.415976	0.932999	0.144472
114	N	0.444637	0.966071	0.153915
115	C	0.462819	0.982771	0.992776
116	C	0.492823	0.017409	0.003926
117	N	0.503497	0.033934	0.175823
118	C	0.532112	0.067003	0.187653
119	C	0.551968	0.085904	0.032154
120	C	0.593642	0.091818	0.63171
121	C	0.608164	0.115333	0.459109
122	S	0.61245	0.16697	0.106633
123	H	0.54865	0.197665	0.044339
124	H	0.533039	0.156114	0.346265
125	H	0.531982	0.115484	0.581411
126	H	0.514342	0.029977	0.527727
127	H	0.462969	0.970683	0.508649
128	H	0.366215	0.922627	0.559393
129	H	0.346509	0.862868	0.35886
130	H	0.378549	0.90069	0.224412
131	H	0.450277	0.844267	0.403648
132	H	0.446868	0.801929	0.123457
133	H	0.44173	0.884755	0.599746
134	H	0.380209	0.887633	0.977885
135	H	0.403122	0.921741	0.280392
136	H	0.538682	0.078104	0.330818
137	H	0.574738	0.112535	0.050017
138	H	0.606204	0.07811	0.697594
139	H	0.634886	0.137974	0.488432
140	H	0.60943	0.100133	0.337021
141	C	0.8089	0.404832	0
142	C	0.81315	0.379047	0.090627
143	C	0.835846	0.39327	0.254003
144	C	0.848223	0.429401	0.282621
145	C	0.871193	0.453173	0.426736
146	C	0.886359	0.442841	0.56281
147	C	0.908385	0.472327	0.688752
148	C	0.929306	0.471857	0.85331
149	C	0.96449	0.47677	0.835983
150	C	0.982236	0.482937	0.659504
151	C	0.016665	0.487634	0.648564
152	C	0.034628	0.486338	0.813697
153	C	0.069813	0.490976	0.808613
154	C	0.090508	0.497932	0.63155
155	C	0.091838	0.472468	0.527512
156	C	0.115428	0.488958	0.356348
157	C	0.127641	0.528298	0.380022
158	C	0.150796	0.557838	0.262021
159	C	0.163261	0.594131	0.283695
160	C	0.186357	0.615309	0.132421
161	C	0.190732	0.59443	0
162	S	0.167929	0.550485	0.053733
163	C	0.112607	0.532172	0.540747
164	C	0.086279	0.489383	0.977008
165	C	0.067403	0.483222	0.144472
166	N	0.034027	0.478727	0.153915
167	C	0.017151	0.48013	0.992776
168	C	0.982195	0.47541	0.003926
169	N	0.96554	0.469553	0.175823
170	C	0.932168	0.465015	0.187653
171	C	0.913072	0.465889	0.032154
172	C	0.906882	0.501271	0.63171
173	C	0.883186	0.492276	0.459109
174	S	0.831321	0.445197	0.106633
175	H	0.800893	0.351522	0.044339
176	H	0.842702	0.377364	0.346265
177	H	0.883497	0.416701	0.581411
178	H	0.969447	0.484223	0.527727
179	H	0.029286	0.492294	0.508649
180	H	0.078118	0.444263	0.559393
181	H	0.138232	0.48415	0.35886
182	H	0.100067	0.47828	0.224412
183	H	0.156275	0.605376	0.403648
184	H	0.1988	0.644082	0.123457
185	H	0.11568	0.556671	0.599746
186	H	0.113164	0.492901	0.977885
187	H	0.078784	0.481686	0.280392
188	H	0.920983	0.460487	0.330818
189	H	0.886198	0.461963	0.050017
190	H	0.920567	0.527332	0.697594
191	H	0.860294	0.49623	0.488432
192	H	0.898438	0.508638	0.337021
