data_C105H51N9O6S18_2023-05-11_02:35:48
#******************************************
#
# CIF file created by Zeo++
# Zeo++ is an open source package to
# analyze microporous materials
#
#*******************************************

_cell_length_a		57.447   
_cell_length_b		57.7454   
_cell_length_c		7   
_cell_angle_alpha		90   
_cell_angle_beta		90   
_cell_angle_gamma		119.774   

_symmetry_space_group_name_H-M		'P1'
_symmetry_Int_Tables_number		1
_symmetry_cell_setting		Monoclinic

loop_
_symmetry_equiv_pos_as_xyz
'+x,+y,+z'

loop_
_atom_site_label
_atom_site_type_symbol
_atom_site_fract_x
_atom_site_fract_y
_atom_site_fract_z
1	C	0.360317	0.672312	0.999995
2	O	0.383973	0.676464	0.999991
3	C	0.338921	0.64457	0.999998
4	C	0.343063	0.624121	0
5	N	0.369544	0.628903	0
6	C	0.311563	0.639646	3e-06
7	O	0.292334	0.615735	5e-06
8	C	0.305001	0.660981	6e-06
9	C	0.279825	0.655833	5e-06
10	N	0.259006	0.628627	0
11	C	0.327426	0.688502	4e-06
12	O	0.322212	0.706952	7e-06
13	C	0.355225	0.694663	0.999999
14	C	0.374994	0.719769	0.999998
15	N	0.371034	0.742056	0
16	H	0.326685	0.604214	1e-06
17	H	0.274522	0.671115	8e-06
18	H	0.394978	0.723354	0.999997
19	C	0.639683	0.327688	0.999995
20	O	0.616027	0.323536	0.999991
21	C	0.661079	0.35543	0.999998
22	C	0.656937	0.375879	0
23	N	0.630456	0.371097	0
24	C	0.688437	0.360354	3e-06
25	O	0.707666	0.384265	5e-06
26	C	0.694999	0.339019	6e-06
27	C	0.720175	0.344167	5e-06
28	N	0.740994	0.371373	0
29	C	0.672574	0.311498	4e-06
30	O	0.677788	0.293048	7e-06
31	C	0.644775	0.305337	0.999999
32	C	0.625006	0.280231	0.999998
33	N	0.628966	0.257944	0
34	H	0.673315	0.395786	1e-06
35	H	0.725478	0.328885	8e-06
36	H	0.605022	0.276646	0.999997
37	C	0.385697	0.612942	0
38	C	0.399422	0.59938	0.973415
39	C	0.402824	0.59602	0.774897
40	C	0.417639	0.581383	0.692537
41	C	0.420871	0.578192	0.501023
42	C	0.435135	0.564099	0.470068
43	C	0.442277	0.557039	0.639058
44	C	0.458157	0.54135	0.654632
45	C	0.466585	0.533029	0.498616
46	S	0.483202	0.516613	0.562631
47	C	0.479541	0.520223	0.803292
48	C	0.490382	0.50951	0.948854
49	C	0.487375	0.512497	0.144172
50	C	0.497662	0.502332	0.281346
51	C	0.511035	0.489102	0.221898
52	C	0.522779	0.477496	0.351289
53	C	0.536351	0.464084	0.302117
54	C	0.54521	0.455329	0.462793
55	C	0.561104	0.439623	0.452106
56	C	0.569592	0.431234	0.608154
57	C	0.583502	0.417489	0.553862
58	C	0.58513	0.415882	0.358313
59	C	0.599161	0.402018	0.251978
60	C	0.611408	0.389915	0.346134
61	S	0.624806	0.376677	0.190801
62	C	0.614303	0.387058	0
63	C	0.600893	0.400308	0.04918
64	S	0.569951	0.430882	0.242738
65	C	0.538111	0.462343	0.63173
66	S	0.521054	0.479199	0.595596
67	N	0.514323	0.485837	0.03426
68	C	0.504101	0.495938	0.9046
69	C	0.465639	0.533955	0.829154
70	S	0.431762	0.567426	0.832409
71	C	0.391441	0.607269	0.661069
72	S	0.376848	0.621688	0.793096
73	H	0.406636	0.592251	0.089609
74	H	0.413534	0.585441	0.386427
75	H	0.43971	0.55958	0.329636
76	H	0.463955	0.535631	0.348829
77	H	0.477011	0.522752	0.194628
78	H	0.494944	0.505031	0.431378
79	H	0.53964	0.460834	0.154389
80	H	0.566201	0.434584	0.755133
81	H	0.591734	0.409354	0.655521
82	H	0.613344	0.388001	0.49803
83	H	0.592761	0.408346	0.94582
84	H	0.541959	0.45854	0.776125
85	H	0.507698	0.492369	0.758006
86	H	0.460907	0.538624	0.968526
87	H	0.390774	0.607929	0.507004
88	C	0.386968	0.773978	0
89	C	0.400508	0.801102	0.973415
90	C	0.403862	0.807823	0.774897
91	C	0.418475	0.837099	0.692537
92	C	0.421661	0.843484	0.501023
93	C	0.43573	0.87167	0.470068
94	C	0.442777	0.885787	0.639058
95	C	0.45844	0.917168	0.654632
96	C	0.466748	0.933817	0.498616
97	S	0.483136	0.966651	0.562631
98	C	0.479532	0.959424	0.803292
99	C	0.490227	0.980849	0.948854
100	C	0.487245	0.97489	0.144172
101	C	0.497393	0.995221	0.281346
102	C	0.510601	0.021664	0.221898
103	C	0.522187	0.044873	0.351289
104	C	0.535578	0.071697	0.302117
105	C	0.544318	0.089205	0.462793
106	C	0.559998	0.120617	0.452106
107	C	0.568372	0.137392	0.608154
108	C	0.582094	0.164882	0.553862
109	C	0.583699	0.168098	0.358313
110	C	0.597539	0.195825	0.251978
111	C	0.609622	0.220029	0.346134
112	S	0.622838	0.246506	0.190801
113	C	0.612474	0.225747	0
114	C	0.599246	0.199246	0.04918
115	S	0.568723	0.138098	0.242738
116	C	0.537315	0.075176	0.63173
117	S	0.520488	0.041467	0.595596
118	N	0.513861	0.028178	0.03426
119	C	0.503776	0.007976	0.9046
120	C	0.465823	0.931956	0.829154
121	S	0.432408	0.86501	0.832409
122	C	0.392632	0.785327	0.661069
123	S	0.378237	0.756489	0.793096
124	H	0.407624	0.815358	0.089609
125	H	0.414423	0.828985	0.386427
126	H	0.440241	0.88071	0.329636
127	H	0.46415	0.928616	0.348829
128	H	0.477007	0.954396	0.194628
129	H	0.494699	0.989836	0.431378
130	H	0.538822	0.078196	0.154389
131	H	0.565028	0.130692	0.755133
132	H	0.590216	0.181151	0.655521
133	H	0.611532	0.223855	0.49803
134	H	0.591222	0.183173	0.94582
135	H	0.541111	0.082781	0.776125
136	H	0.507339	0.0151	0.758006
137	H	0.461162	0.922611	0.968526
138	H	0.391973	0.784007	0.507004
139	C	0.226918	0.612666	0
140	C	0.199654	0.599105	0.973415
141	C	0.192897	0.595743	0.774897
142	C	0.16347	0.581105	0.692537
143	C	0.157052	0.577911	0.501023
144	C	0.128719	0.563817	0.470068
145	C	0.11453	0.55676	0.639058
146	C	0.082986	0.541069	0.654632
147	C	0.066251	0.532741	0.498616
148	S	0.033246	0.516322	0.562631
149	C	0.04051	0.519939	0.803292
150	C	0.018974	0.509227	0.948854
151	C	0.024964	0.512199	0.144172
152	C	0.004528	0.502034	0.281346
153	C	0.977947	0.48882	0.221898
154	C	0.954618	0.477217	0.351289
155	C	0.927655	0.463806	0.302117
156	C	0.910056	0.455052	0.462793
157	C	0.878482	0.439347	0.452106
158	C	0.86162	0.43096	0.608154
159	C	0.833987	0.417216	0.553862
160	C	0.830754	0.415607	0.358313
161	C	0.802884	0.401744	0.251978
162	C	0.778553	0.389642	0.346134
163	S	0.75194	0.376404	0.190801
164	C	0.772806	0.386782	0
165	C	0.799444	0.400032	0.04918
166	S	0.860909	0.430606	0.242738
167	C	0.924158	0.462067	0.63173
168	S	0.958042	0.478921	0.595596
169	N	0.9714	0.485571	0.03426
170	C	0.991707	0.495672	0.9046
171	C	0.068121	0.533676	0.829154
172	S	0.135414	0.56715	0.832409
173	C	0.21551	0.606991	0.661069
174	S	0.244498	0.62141	0.793096
175	H	0.185323	0.591977	0.089609
176	H	0.171626	0.58516	0.386427
177	H	0.119632	0.559296	0.329636
178	H	0.071478	0.53534	0.348829
179	H	0.045565	0.522439	0.194628
180	H	0.00994	0.50472	0.431378
181	H	0.921122	0.460556	0.154389
182	H	0.868354	0.434311	0.755133
183	H	0.817633	0.409082	0.655521
184	H	0.774708	0.38773	0.49803
185	H	0.815601	0.408068	0.94582
186	H	0.916513	0.458265	0.776125
187	H	0.984546	0.492118	0.758006
188	H	0.077515	0.538352	0.968526
189	H	0.216837	0.60765	0.507004
