data_C102H54N12O6S6_2023-05-11_00:38:01
#******************************************
#
# CIF file created by Zeo++
# Zeo++ is an open source package to
# analyze microporous materials
#
#*******************************************

_cell_length_a		44.508   
_cell_length_b		44.8066   
_cell_length_c		7   
_cell_angle_alpha		90   
_cell_angle_beta		90   
_cell_angle_gamma		119.709   

_symmetry_space_group_name_H-M		'P1'
_symmetry_Int_Tables_number		1
_symmetry_cell_setting		Monoclinic

loop_
_symmetry_equiv_pos_as_xyz
'+x,+y,+z'

loop_
_atom_site_label
_atom_site_type_symbol
_atom_site_fract_x
_atom_site_fract_y
_atom_site_fract_z
1	C	0.368151	0.673938	0.999995
2	O	0.398678	0.679285	0.999991
3	C	0.340582	0.638207	0.999998
4	C	0.345964	0.611871	0
5	N	0.380135	0.61803	0
6	C	0.30528	0.631866	3e-06
7	O	0.280502	0.60107	5e-06
8	C	0.296774	0.659344	6e-06
9	C	0.264288	0.652713	5e-06
10	N	0.237463	0.617674	0
11	C	0.325671	0.694789	4e-06
12	O	0.31891	0.718552	7e-06
13	C	0.361541	0.702724	0.999999
14	C	0.387014	0.735059	0.999998
15	N	0.381865	0.763763	0
16	H	0.324858	0.586233	1e-06
17	H	0.257418	0.672395	8e-06
18	H	0.412802	0.739677	0.999997
19	C	0.631849	0.326062	0.999995
20	O	0.601322	0.320715	0.999991
21	C	0.659418	0.361793	0.999998
22	C	0.654036	0.388129	0
23	N	0.619865	0.38197	0
24	C	0.69472	0.368134	3e-06
25	O	0.719498	0.39893	5e-06
26	C	0.703226	0.340656	6e-06
27	C	0.735712	0.347287	5e-06
28	N	0.762537	0.382326	0
29	C	0.674329	0.305211	4e-06
30	O	0.68109	0.281448	7e-06
31	C	0.638459	0.297276	0.999999
32	C	0.612986	0.264941	0.999998
33	N	0.618135	0.236237	0
34	H	0.675142	0.413767	1e-06
35	H	0.742582	0.327605	8e-06
36	H	0.587198	0.260323	0.999997
37	C	0.598989	0.402527	0
38	C	0.632852	0.423765	0.95039
39	C	0.638357	0.456524	0.889558
40	C	0.608507	0.459027	0.895408
41	C	0.603605	0.488137	0.843227
42	C	0.624954	0.512769	0.711038
43	C	0.619063	0.539773	0.668429
44	C	0.5922	0.541494	0.759321
45	C	0.572073	0.516158	0.891544
46	C	0.542812	0.515984	0.990527
47	C	0.509302	0.490141	0.940037
48	C	0.480332	0.489073	0.020572
49	C	0.484431	0.513828	0.154089
50	C	0.517414	0.540072	0.213509
51	C	0.521642	0.565102	0.353209
52	C	0.492101	0.565492	0.445179
53	N	0.473724	0.575328	0.333171
54	C	0.446284	0.57612	0.410977
55	C	0.427306	0.586965	0.282807
56	C	0.408601	0.603294	0.326558
57	C	0.393382	0.60944	0.162446
58	C	0.401011	0.597473	0
59	S	0.425786	0.579241	0.040675
60	C	0.43664	0.567541	0.600944
61	C	0.455751	0.557564	0.714855
62	C	0.483895	0.556514	0.636246
63	C	0.555143	0.590345	0.408215
64	C	0.58413	0.591055	0.330292
65	C	0.580078	0.566622	0.194594
66	C	0.547113	0.54093	0.131066
67	N	0.577423	0.489616	0.932904
68	S	0.57406	0.420998	0.975064
69	H	0.652761	0.416601	0.957154
70	H	0.663308	0.477354	0.845254
71	H	0.645654	0.511044	0.639549
72	H	0.635129	0.559195	0.564599
73	H	0.586906	0.56215	0.727122
74	H	0.505944	0.470729	0.835466
75	H	0.454581	0.469148	0.979185
76	H	0.461049	0.512356	0.212341
77	H	0.406111	0.610898	0.46994
78	H	0.37792	0.621973	0.165348
79	H	0.414442	0.56813	0.660419
80	H	0.448691	0.550524	0.863314
81	H	0.499038	0.548598	0.72214
82	H	0.558595	0.60974	0.513025
83	H	0.609869	0.610524	0.374968
84	H	0.60348	0.567743	0.139487
85	C	0.596902	0.194769	0
86	C	0.575386	0.207195	0.95039
87	C	0.542471	0.18008	0.889558
88	C	0.540133	0.148027	0.895408
89	C	0.510942	0.114232	0.843227
90	C	0.486092	0.110889	0.711038
91	C	0.45902	0.078207	0.668429
92	C	0.45745	0.049891	0.759321
93	C	0.482999	0.055143	0.891544
94	C	0.483346	0.026335	0.990527
95	C	0.509481	0.018837	0.940037
96	C	0.510724	0.991206	0.020572
97	C	0.485851	0.970655	0.154089
98	C	0.459315	0.977233	0.213509
99	C	0.434165	0.956537	0.353209
100	C	0.433947	0.92689	0.445179
101	N	0.424182	0.898911	0.333171
102	C	0.423547	0.870945	0.410977
103	C	0.412772	0.841367	0.282807
104	C	0.39649	0.806606	0.326558
105	C	0.39041	0.785423	0.162446
106	C	0.402378	0.804876	0
107	S	0.420534	0.84754	0.040675
108	C	0.432214	0.869922	0.600944
109	C	0.442118	0.898769	0.714855
110	C	0.443007	0.927688	0.636246
111	C	0.408631	0.964622	0.408215
112	C	0.407749	0.992627	0.330292
113	C	0.432298	0.012903	0.194594
114	C	0.45828	0.005794	0.131066
115	N	0.509611	0.08683	0.932904
116	S	0.578507	0.151715	0.975064
117	H	0.582461	0.234036	0.957154
118	H	0.521416	0.184084	0.845254
119	H	0.487702	0.133105	0.639549
120	H	0.439431	0.074812	0.564599
121	H	0.436747	0.024111	0.727122
122	H	0.528986	0.034809	0.835466
123	H	0.530874	0.985509	0.979185
124	H	0.487465	0.948961	0.212341
125	H	0.388873	0.796581	0.46994
126	H	0.37792	0.75765	0.165348
127	H	0.431753	0.847351	0.660419
128	H	0.449226	0.898775	0.863314
129	H	0.450864	0.950557	0.72214
130	H	0.389143	0.948759	0.513025
131	H	0.388056	0.998765	0.374968
132	H	0.431036	0.034967	0.139487
133	C	0.803572	0.402172	0
134	C	0.791224	0.368508	0.95039
135	C	0.818634	0.362863	0.889558
136	C	0.850822	0.392414	0.895408
137	C	0.884915	0.397099	0.843227
138	C	0.888417	0.37581	0.711038
139	C	0.92138	0.381487	0.668429
140	C	0.949812	0.408083	0.759321
141	C	0.944391	0.428166	0.891544
142	C	0.973305	0.457149	0.990527
143	C	0.980679	0.490489	0.940037
144	C	0.008407	0.519189	0.020572
145	C	0.029181	0.514984	0.154089
146	C	0.022733	0.482162	0.213509
147	C	0.043655	0.477828	0.353209
148	C	0.073415	0.507086	0.445179
149	N	0.101557	0.525229	0.333171
150	C	0.129632	0.552402	0.410977
151	C	0.159385	0.571136	0.282807
152	C	0.194372	0.589567	0.326558
153	C	0.215671	0.604604	0.162446
154	C	0.196074	0.597118	0
155	S	0.153143	0.572687	0.040675
156	C	0.130609	0.562004	0.600944
157	C	0.101594	0.543134	0.714855
158	C	0.072561	0.515265	0.636246
159	C	0.035689	0.444501	0.408215
160	C	0.007583	0.415786	0.330292
161	C	0.987087	0.419942	0.194594
162	C	0.99407	0.452743	0.131066
163	N	0.912429	0.423022	0.932904
164	S	0.846896	0.426754	0.975064
165	H	0.764241	0.34883	0.957154
166	H	0.814738	0.338029	0.845254
167	H	0.866107	0.355318	0.639549
168	H	0.924902	0.36546	0.564599
169	H	0.97581	0.413206	0.727122
170	H	0.964533	0.493929	0.835466
171	H	0.014008	0.54481	0.979185
172	H	0.050948	0.538151	0.212341
173	H	0.20448	0.591989	0.46994
174	H	0.243622	0.619845	0.165348
175	H	0.153267	0.583987	0.660419
176	H	0.101547	0.550168	0.863314
177	H	0.04956	0.500313	0.72214
178	H	0.051726	0.440968	0.513025
179	H	0.001537	0.390179	0.374968
180	H	0.964947	0.396757	0.139487
