data_C60H24N6O6S12_2023-05-13_07:57:25
#******************************************
#
# CIF file created by Zeo++
# Zeo++ is an open source package to
# analyze microporous materials
#
#*******************************************

_cell_length_a		39.3561   
_cell_length_b		39.6547   
_cell_length_c		7   
_cell_angle_alpha		90   
_cell_angle_beta		90   
_cell_angle_gamma		119.671   

_symmetry_space_group_name_H-M		'P1'
_symmetry_Int_Tables_number		1
_symmetry_cell_setting		Monoclinic

loop_
_symmetry_equiv_pos_as_xyz
'+x,+y,+z'

loop_
_atom_site_label
_atom_site_type_symbol
_atom_site_fract_x
_atom_site_fract_y
_atom_site_fract_z
1	C	0.372703	0.674879	0.999995
2	O	0.407221	0.680918	0.999991
3	C	0.341556	0.634522	0.999998
4	C	0.347665	0.604775	0
5	N	0.386303	0.611732	0
6	C	0.301637	0.627359	3e-06
7	O	0.273643	0.592575	5e-06
8	C	0.291995	0.658396	6e-06
9	C	0.255261	0.650906	5e-06
10	N	0.224955	0.61133	0
11	C	0.324644	0.698431	4e-06
12	O	0.316977	0.72527	7e-06
13	C	0.365202	0.707393	0.999999
14	C	0.393982	0.743916	0.999998
15	N	0.388134	0.776336	0
16	H	0.323818	0.575817	1e-06
17	H	0.247475	0.673137	8e-06
18	H	0.423142	0.749131	0.999997
19	C	0.627297	0.325121	0.999995
20	O	0.592779	0.319082	0.999991
21	C	0.658444	0.365478	0.999998
22	C	0.652335	0.395225	0
23	N	0.613697	0.388268	0
24	C	0.698363	0.372641	3e-06
25	O	0.726357	0.407425	5e-06
26	C	0.708005	0.341604	6e-06
27	C	0.744739	0.349094	5e-06
28	N	0.775045	0.38867	0
29	C	0.675356	0.301569	4e-06
30	O	0.683023	0.27473	7e-06
31	C	0.634798	0.292607	0.999999
32	C	0.606018	0.256084	0.999998
33	N	0.611866	0.223664	0
34	H	0.676182	0.424183	1e-06
35	H	0.752525	0.326863	8e-06
36	H	0.576858	0.250869	0.999997
37	C	0.59007	0.411487	0
38	C	0.571427	0.429807	0.923193
39	C	0.556622	0.444356	0.068899
40	C	0.533576	0.467004	0.031976
41	C	0.519623	0.480715	0.175186
42	C	0.500121	0.49988	0.0975
43	C	0.499877	0.500119	0.902501
44	C	0.480376	0.519284	0.824815
45	C	0.466423	0.532995	0.968025
46	C	0.443377	0.555644	0.931101
47	C	0.435113	0.563766	0.750763
48	S	0.40979	0.588652	0.758173
49	C	0.40993	0.588513	0
50	C	0.428573	0.570192	0.076807
51	S	0.476367	0.523224	0.193016
52	S	0.523632	0.476775	0.806985
53	C	0.564887	0.436234	0.249237
54	S	0.590211	0.411349	0.241827
55	H	0.568544	0.43264	0.771051
56	H	0.522752	0.47764	0.326726
57	H	0.477247	0.522359	0.673274
58	H	0.442426	0.55658	0.613571
59	H	0.431456	0.567359	0.228949
60	H	0.557575	0.44342	0.38643
61	C	0.587889	0.176826	0
62	C	0.569614	0.140185	0.923193
63	C	0.555101	0.111088	0.068899
64	C	0.532508	0.065792	0.031976
65	C	0.518831	0.038369	0.175186
66	C	0.499713	3.9e-05	0.0975
67	C	0.499474	0.99956	0.902501
68	C	0.480356	0.96123	0.824815
69	C	0.466678	0.933808	0.968025
70	C	0.444085	0.888512	0.931101
71	C	0.435983	0.872269	0.750763
72	S	0.411158	0.822497	0.758173
73	C	0.411296	0.822774	0
74	C	0.429572	0.859415	0.076807
75	S	0.476426	0.953351	0.193016
76	S	0.522761	0.046248	0.806985
77	C	0.563202	0.127331	0.249237
78	S	0.588027	0.177103	0.241827
79	H	0.566787	0.134518	0.771051
80	H	0.521898	0.044519	0.326726
81	H	0.477288	0.955081	0.673274
82	H	0.443151	0.886641	0.613571
83	H	0.432398	0.865081	0.228949
84	H	0.556034	0.112959	0.38643
85	C	0.821434	0.411086	0
86	C	0.858352	0.429406	0.923193
87	C	0.88767	0.443955	0.068899
88	C	0.933309	0.466603	0.031976
89	C	0.960939	0.480315	0.175186
90	C	0.999558	0.499479	0.0975
91	C	4.1e-05	0.499719	0.902501
92	C	0.038661	0.518884	0.824815
93	C	0.066291	0.532595	0.968025
94	C	0.11193	0.555243	0.931101
95	C	0.128296	0.563364	0.750763
96	S	0.178445	0.58825	0.758173
97	C	0.178166	0.588112	0
98	C	0.141248	0.569791	0.076807
99	S	0.0466	0.522824	0.193016
100	S	0.953	0.476375	0.806985
101	C	0.871304	0.435833	0.249237
102	S	0.821155	0.410947	0.241827
103	H	0.864061	0.43224	0.771051
104	H	0.954742	0.47724	0.326726
105	H	0.044858	0.521959	0.673274
106	H	0.113816	0.556178	0.613571
107	H	0.135539	0.566959	0.228949
108	H	0.885784	0.443019	0.38643
