data_C90H42N6O6S18_2023-05-11_23:34:29
#******************************************
#
# CIF file created by Zeo++
# Zeo++ is an open source package to
# analyze microporous materials
#
#*******************************************

_cell_length_a		51.6927   
_cell_length_b		51.9911   
_cell_length_c		7   
_cell_angle_alpha		90   
_cell_angle_beta		90   
_cell_angle_gamma		119.749   

_symmetry_space_group_name_H-M		'P1'
_symmetry_Int_Tables_number		1
_symmetry_cell_setting		Monoclinic

loop_
_symmetry_equiv_pos_as_xyz
'+x,+y,+z'

loop_
_atom_site_label
_atom_site_type_symbol
_atom_site_fract_x
_atom_site_fract_y
_atom_site_fract_z
1	C	0.363317	0.672935	0.999995
2	O	0.389605	0.677545	0.999991
3	C	0.339555	0.64213	0.999998
4	C	0.34417	0.619424	0
5	N	0.373596	0.624734	0
6	C	0.309155	0.636663	3e-06
7	O	0.287799	0.610112	5e-06
8	C	0.301851	0.660354	6e-06
9	C	0.273875	0.654636	5e-06
10	N	0.250753	0.624428	0
11	C	0.326756	0.690913	4e-06
12	O	0.320951	0.7114	7e-06
13	C	0.357646	0.697753	0.999999
14	C	0.379601	0.725632	0.999998
15	N	0.375188	0.750379	0
16	H	0.32598	0.59732	1e-06
17	H	0.267973	0.671606	8e-06
18	H	0.401809	0.729613	0.999997
19	C	0.636683	0.327065	0.999995
20	O	0.610395	0.322455	0.999991
21	C	0.660445	0.35787	0.999998
22	C	0.65583	0.380576	0
23	N	0.626404	0.375266	0
24	C	0.690845	0.363337	3e-06
25	O	0.712201	0.389888	5e-06
26	C	0.698149	0.339646	6e-06
27	C	0.726125	0.345364	5e-06
28	N	0.749247	0.375572	0
29	C	0.673244	0.309087	4e-06
30	O	0.679049	0.2886	7e-06
31	C	0.642354	0.302247	0.999999
32	C	0.620399	0.274368	0.999998
33	N	0.624812	0.249621	0
34	H	0.67402	0.40268	1e-06
35	H	0.732027	0.328394	8e-06
36	H	0.598191	0.270387	0.999997
37	C	0.391556	0.607011	0
38	C	0.401568	0.597132	0.851185
39	S	0.419678	0.579263	0.932758
40	C	0.413979	0.584885	0.166484
41	C	0.425194	0.573817	0.340808
42	C	0.420601	0.578349	0.528419
43	S	0.435394	0.563751	0.683565
44	C	0.448392	0.550926	0.501691
45	C	0.464404	0.535126	0.539825
46	C	0.471589	0.528036	0.714902
47	C	0.487563	0.512273	0.698672
48	C	0.492475	0.507428	0.511303
49	C	0.507806	0.4923	0.441357
50	C	0.512725	0.487449	0.254027
51	C	0.528699	0.471686	0.238002
52	C	0.535885	0.464591	0.413131
53	C	0.551984	0.448704	0.446058
54	C	0.563144	0.437692	0.307872
55	C	0.577977	0.423054	0.385434
56	C	0.592944	0.408284	0.265051
57	C	0.593449	0.407786	0.067967
58	C	0.608444	0.392989	0
59	C	0.618948	0.382623	0.1432
60	S	0.610559	0.390901	0.36313
61	C	0.577728	0.423299	0.581921
62	S	0.559874	0.440918	0.670373
63	S	0.522879	0.477422	0.594103
64	S	0.477393	0.522311	0.358546
65	C	0.441193	0.558031	0.3261
66	C	0.398532	0.600127	0.182102
67	H	0.399258	0.599413	0.699556
68	H	0.409308	0.589492	0.58468
69	H	0.465797	0.533751	0.850991
70	H	0.494985	0.50495	0.821302
71	H	0.505304	0.494774	0.13142
72	H	0.534493	0.465971	0.102031
73	H	0.560745	0.440059	0.156382
74	H	0.583629	0.417477	0.977027
75	H	0.631046	0.370684	0.130881
76	H	0.587098	0.414052	0.680061
77	H	0.447163	0.55214	0.191321
78	H	0.392515	0.606063	0.316393
79	C	0.392878	0.785825	0
80	C	0.402739	0.805584	0.851185
81	S	0.420575	0.841323	0.932758
82	C	0.414963	0.830078	0.166484
83	C	0.42601	0.852213	0.340808
84	C	0.421487	0.843149	0.528419
85	S	0.436058	0.872343	0.683565
86	C	0.448859	0.897995	0.501691
87	C	0.464629	0.929595	0.539825
88	C	0.471707	0.943776	0.714902
89	C	0.48744	0.975301	0.698672
90	C	0.492276	0.984993	0.511303
91	C	0.507376	0.01525	0.441357
92	C	0.512217	0.024954	0.254027
93	C	0.527952	0.056481	0.238002
94	C	0.535033	0.070668	0.413131
95	C	0.55089	0.10244	0.446058
96	C	0.561882	0.124465	0.307872
97	C	0.576493	0.15374	0.385434
98	C	0.591236	0.18328	0.265051
99	C	0.591732	0.184275	0.067967
100	C	0.606502	0.213869	0
101	C	0.616849	0.234601	0.1432
102	S	0.608586	0.218044	0.36313
103	C	0.576248	0.153248	0.581921
104	S	0.558663	0.118013	0.670373
105	S	0.522226	0.045002	0.594103
106	S	0.477421	0.955228	0.358546
107	C	0.441767	0.883786	0.3261
108	C	0.39975	0.799593	0.182102
109	H	0.400462	0.801023	0.699556
110	H	0.410364	0.820861	0.58468
111	H	0.466002	0.932345	0.850991
112	H	0.494749	0.989948	0.821302
113	H	0.504906	0.010307	0.13142
114	H	0.533655	0.067912	0.102031
115	H	0.55952	0.119731	0.156382
116	H	0.58206	0.164894	0.977027
117	H	0.628766	0.258478	0.130881
118	H	0.585478	0.171742	0.680061
119	H	0.447647	0.895568	0.191321
120	H	0.393825	0.78772	0.316393
121	C	0.215103	0.606705	0
122	C	0.19523	0.596825	0.851185
123	S	0.159285	0.578955	0.932758
124	C	0.170595	0.584578	0.166484
125	C	0.148333	0.573511	0.340808
126	C	0.157449	0.578043	0.528419
127	S	0.128086	0.563446	0.683565
128	C	0.102287	0.55062	0.501691
129	C	0.070504	0.534819	0.539825
130	C	0.056242	0.527729	0.714902
131	C	0.024535	0.511966	0.698672
132	C	0.014787	0.50712	0.511303
133	C	0.984355	0.491991	0.441357
134	C	0.974595	0.487137	0.254027
135	C	0.942887	0.471374	0.238002
136	C	0.928618	0.464282	0.413131
137	C	0.896663	0.448397	0.446058
138	C	0.874511	0.437384	0.307872
139	C	0.845067	0.422747	0.385434
140	C	0.815357	0.407977	0.265051
141	C	0.814356	0.407479	0.067967
142	C	0.784592	0.392683	0
143	C	0.76374	0.382317	0.1432
144	S	0.780392	0.390595	0.36313
145	C	0.845562	0.422993	0.581921
146	S	0.881	0.44061	0.670373
147	S	0.954432	0.477117	0.594103
148	S	0.044724	0.522002	0.358546
149	C	0.116577	0.557724	0.3261
150	C	0.201256	0.599821	0.182102
151	H	0.199817	0.599105	0.699556
152	H	0.179865	0.589188	0.58468
153	H	0.067738	0.533444	0.850991
154	H	0.009803	0.504643	0.821302
155	H	0.989327	0.494459	0.13142
156	H	0.931389	0.465657	0.102031
157	H	0.879272	0.439751	0.156382
158	H	0.833849	0.41717	0.977027
159	H	0.739726	0.370379	0.130881
160	H	0.826962	0.413747	0.680061
161	H	0.104727	0.551832	0.191321
162	H	0.213197	0.605758	0.316393
