data_C48H24N18O6_2023-05-11_10:48:29
#******************************************
#
# CIF file created by Zeo++
# Zeo++ is an open source package to
# analyze microporous materials
#
#*******************************************

_cell_length_a		34.101   
_cell_length_b		34.3997   
_cell_length_c		7   
_cell_angle_alpha		90   
_cell_angle_beta		90   
_cell_angle_gamma		119.621   

_symmetry_space_group_name_H-M		'P1'
_symmetry_Int_Tables_number		1
_symmetry_cell_setting		Monoclinic

loop_
_symmetry_equiv_pos_as_xyz
'+x,+y,+z'

loop_
_atom_site_label
_atom_site_type_symbol
_atom_site_fract_x
_atom_site_fract_y
_atom_site_fract_z
1	C	0.37876	0.676129	0.999995
2	O	0.41859	0.683087	0.999991
3	C	0.342861	0.62963	0.999998
4	C	0.349946	0.595356	0
5	N	0.394531	0.603371	0
6	C	0.296799	0.621377	3e-06
7	O	0.264531	0.581299	5e-06
8	C	0.285634	0.657137	6e-06
9	C	0.243249	0.648508	5e-06
10	N	0.208318	0.602909	0
11	C	0.323267	0.703265	4e-06
12	O	0.314388	0.734189	7e-06
13	C	0.370066	0.713591	0.999999
14	C	0.403237	0.755672	0.999998
15	N	0.39645	0.793027	0
16	H	0.322458	0.561991	1e-06
17	H	0.234236	0.674122	8e-06
18	H	0.436885	0.761681	0.999997
19	C	0.62124	0.323871	0.999995
20	O	0.58141	0.316913	0.999991
21	C	0.657139	0.37037	0.999998
22	C	0.650054	0.404644	0
23	N	0.605469	0.396629	0
24	C	0.703201	0.378623	3e-06
25	O	0.735469	0.418701	5e-06
26	C	0.714366	0.342863	6e-06
27	C	0.756751	0.351492	5e-06
28	N	0.791682	0.397091	0
29	C	0.676733	0.296735	4e-06
30	O	0.685612	0.265811	7e-06
31	C	0.629934	0.286409	0.999999
32	C	0.596763	0.244328	0.999998
33	N	0.60355	0.206973	0
34	H	0.677542	0.438009	1e-06
35	H	0.765764	0.325878	8e-06
36	H	0.563115	0.238319	0.999997
37	C	0.578174	0.423381	0
38	C	0.563514	0.43775	0.84436
39	N	0.54044	0.460365	0.862516
40	C	0.532385	0.468259	0.044178
41	C	0.507585	0.492566	0.072011
42	C	0.492415	0.507433	0.92801
43	C	0.467615	0.53174	0.955838
44	N	0.45956	0.539636	0.137497
45	C	0.436486	0.562251	0.155645
46	C	0.421826	0.576619	0
47	N	0.429679	0.56892	0.81854
48	C	0.45274	0.546318	0.80049
49	C	0.54726	0.45368	0.19952
50	N	0.570321	0.431078	0.181462
51	H	0.569821	0.431568	0.698727
52	H	0.501693	0.498341	0.219285
53	H	0.498306	0.501659	0.780736
54	H	0.430179	0.568434	0.301277
55	H	0.458961	0.540219	0.654462
56	H	0.541039	0.459778	0.34555
57	C	0.575932	0.153008	0
58	C	0.561604	0.12427	0.84436
59	N	0.539053	0.07904	0.862516
60	C	0.53118	0.06325	0.044178
61	C	0.506942	0.014637	0.072011
62	C	0.492117	0.984902	0.92801
63	C	0.467879	0.936288	0.955838
64	N	0.460005	0.920498	0.137497
65	C	0.437454	0.875267	0.155645
66	C	0.423127	0.846531	0
67	N	0.430804	0.861927	0.81854
68	C	0.453342	0.907131	0.80049
69	C	0.545719	0.092409	0.19952
70	N	0.568257	0.137613	0.181462
71	H	0.567768	0.136633	0.698727
72	H	0.501184	0.003088	0.219285
73	H	0.497876	0.996451	0.780736
74	H	0.431289	0.862903	0.301277
75	H	0.459424	0.919328	0.654462
76	H	0.539638	0.080214	0.34555
77	C	0.845193	0.422919	0
78	C	0.874182	0.437287	0.84436
79	N	0.919807	0.459903	0.862516
80	C	0.935734	0.467797	0.044178
81	C	0.984772	0.492104	0.072011
82	C	0.014767	0.506972	0.92801
83	C	0.063805	0.531279	0.955838
84	N	0.079734	0.539173	0.137497
85	C	0.125359	0.561788	0.155645
86	C	0.154347	0.576157	0
87	N	0.138816	0.56846	0.81854
88	C	0.093217	0.545858	0.80049
89	C	0.906321	0.453218	0.19952
90	N	0.860722	0.430616	0.181462
91	H	0.86171	0.431105	0.698727
92	H	0.996422	0.497878	0.219285
93	H	0.003117	0.501198	0.780736
94	H	0.137832	0.56797	0.301277
95	H	0.080914	0.53976	0.654462
96	H	0.918622	0.459315	0.34555
