data_C57H30N6O6S6_2023-05-24_19:32:50
#******************************************
#
# CIF file created by Zeo++
# Zeo++ is an open source package to
# analyze microporous materials
#
#*******************************************

_cell_length_a		34.3791   
_cell_length_b		34.6777   
_cell_length_c		7   
_cell_angle_alpha		90   
_cell_angle_beta		90   
_cell_angle_gamma		119.624   

_symmetry_space_group_name_H-M		'P1'
_symmetry_Int_Tables_number		1
_symmetry_cell_setting		Monoclinic

loop_
_symmetry_equiv_pos_as_xyz
'+x,+y,+z'

loop_
_atom_site_label
_atom_site_type_symbol
_atom_site_fract_x
_atom_site_fract_y
_atom_site_fract_z
1	C	0.378393	0.676054	0.999995
2	O	0.417901	0.682956	0.999991
3	C	0.342781	0.629926	0.999998
4	C	0.349807	0.595926	0
5	N	0.394032	0.603877	0
6	C	0.297092	0.621739	3e-06
7	O	0.265082	0.581981	5e-06
8	C	0.286019	0.657213	6e-06
9	C	0.243976	0.648653	5e-06
10	N	0.209325	0.603418	0
11	C	0.323351	0.702972	4e-06
12	O	0.314545	0.73365	7e-06
13	C	0.369771	0.713216	0.999999
14	C	0.402677	0.754961	0.999998
15	N	0.395948	0.792018	0
16	H	0.32254	0.562827	1e-06
17	H	0.235038	0.674062	8e-06
18	H	0.436053	0.760922	0.999997
19	C	0.621607	0.323946	0.999995
20	O	0.582099	0.317044	0.999991
21	C	0.657219	0.370074	0.999998
22	C	0.650193	0.404074	0
23	N	0.605968	0.396123	0
24	C	0.702908	0.378261	3e-06
25	O	0.734918	0.418019	5e-06
26	C	0.713981	0.342787	6e-06
27	C	0.756024	0.351347	5e-06
28	N	0.790675	0.396582	0
29	C	0.676649	0.297028	4e-06
30	O	0.685455	0.26635	7e-06
31	C	0.630229	0.286784	0.999999
32	C	0.597323	0.245039	0.999998
33	N	0.604052	0.207982	0
34	H	0.67746	0.437173	1e-06
35	H	0.764962	0.325938	8e-06
36	H	0.563947	0.239078	0.999997
37	C	0.421105	0.577338	0
38	C	0.419404	0.55992	0.822803
39	S	0.448035	0.531375	0.818638
40	C	0.463162	0.542227	0.057198
41	C	0.489596	0.525691	0.1445
42	C	0.502086	0.533251	0.328977
43	C	0.529454	0.511909	0.380033
44	C	0.530989	0.490471	0.194336
45	C	0.552222	0.465036	0.151235
46	C	0.554045	0.445087	0.98204
47	C	0.578895	0.422662	0
48	C	0.595823	0.425348	0.179548
49	S	0.581508	0.455348	0.328342
50	C	0.507708	0.499225	0.063325
51	C	0.445828	0.567535	0.134227
52	H	0.402923	0.562398	0.695655
53	H	0.494337	0.551802	0.431052
54	H	0.562977	0.536937	0.426472
55	H	0.51303	0.487227	0.492945
56	H	0.538135	0.446604	0.850933
57	H	0.615795	0.411344	0.231408
58	H	0.50241	0.488606	0.916018
59	H	0.450812	0.578507	0.281491
60	C	0.422412	0.845094	0
61	C	0.439928	0.860701	0.822803
62	S	0.468397	0.917309	0.818638
63	C	0.457378	0.92148	0.057198
64	C	0.473795	0.963999	0.1445
65	C	0.466103	0.968831	0.328977
66	C	0.487343	0.017042	0.380033
67	C	0.508875	0.039835	0.194336
68	C	0.534275	0.08605	0.151235
69	C	0.554307	0.107648	0.98204
70	C	0.576655	0.154448	0
71	C	0.573828	0.168501	0.179548
72	S	0.543788	0.124588	0.328342
73	C	0.500254	0.008153	0.063325
74	C	0.432077	0.879243	0.134227
75	H	0.437563	0.841965	0.695655
76	H	0.44752	0.942767	0.431052
77	H	0.46194	0.025314	0.426472
78	H	0.51227	0.025317	0.492945
79	H	0.552903	0.090429	0.850933
80	H	0.58775	0.202124	0.231408
81	H	0.510965	0.01346	0.916018
82	H	0.421013	0.873276	0.281491
83	C	0.155788	0.57688	0
84	C	0.139973	0.578691	0.822803
85	S	0.082872	0.550628	0.818638
86	C	0.078765	0.535606	0.057198
87	C	0.035914	0.509623	0.1445
88	C	0.031115	0.49723	0.328977
89	C	0.982508	0.470361	0.380033
90	C	0.95944	0.469006	0.194336
91	C	0.912808	0.448227	0.151235
92	C	0.890953	0.446578	0.98204
93	C	0.843754	0.422203	0
94	C	0.829654	0.405464	0.179548
95	S	0.874008	0.419376	0.328342
96	C	0.991343	0.491934	0.063325
97	C	0.1214	0.552535	0.134227
98	H	0.158819	0.59495	0.695655
99	H	0.057448	0.504744	0.431052
100	H	0.974388	0.437062	0.426472
101	H	0.974004	0.486768	0.492945
102	H	0.908266	0.46228	0.850933
103	H	0.79576	0.385844	0.231408
104	H	0.98593	0.497247	0.916018
105	H	0.12748	0.547529	0.281491
