data_C60H18N6O6S6_2023-05-11_04:00:03
#******************************************
#
# CIF file created by Zeo++
# Zeo++ is an open source package to
# analyze microporous materials
#
#*******************************************

_cell_length_a		42.1869   
_cell_length_b		42.4854   
_cell_length_c		7   
_cell_angle_alpha		90   
_cell_angle_beta		90   
_cell_angle_gamma		119.693   

_symmetry_space_group_name_H-M		'P1'
_symmetry_Int_Tables_number		1
_symmetry_cell_setting		Monoclinic

loop_
_symmetry_equiv_pos_as_xyz
'+x,+y,+z'

loop_
_atom_site_label
_atom_site_type_symbol
_atom_site_fract_x
_atom_site_fract_y
_atom_site_fract_z
1	C	0.370064	0.674334	0.999995
2	O	0.402269	0.679972	0.999991
3	C	0.340991	0.636657	0.999998
4	C	0.346677	0.608887	0
5	N	0.382726	0.615381	0
6	C	0.303748	0.62997	3e-06
7	O	0.277618	0.597497	5e-06
8	C	0.294765	0.658945	6e-06
9	C	0.260494	0.651953	5e-06
10	N	0.232204	0.615006	0
11	C	0.32524	0.696321	4e-06
12	O	0.318099	0.721378	7e-06
13	C	0.363081	0.704687	0.999999
14	C	0.389944	0.738784	0.999998
15	N	0.384503	0.769052	0
16	H	0.324419	0.581852	1e-06
17	H	0.253239	0.672707	8e-06
18	H	0.41715	0.743653	0.999997
19	C	0.629936	0.325666	0.999995
20	O	0.597731	0.320028	0.999991
21	C	0.659009	0.363343	0.999998
22	C	0.653323	0.391113	0
23	N	0.617274	0.384619	0
24	C	0.696252	0.37003	3e-06
25	O	0.722382	0.402503	5e-06
26	C	0.705235	0.341055	6e-06
27	C	0.739506	0.348047	5e-06
28	N	0.767796	0.384994	0
29	C	0.67476	0.303679	4e-06
30	O	0.681901	0.278622	7e-06
31	C	0.636919	0.295313	0.999999
32	C	0.610056	0.261216	0.999998
33	N	0.615497	0.230948	0
34	H	0.675581	0.418148	1e-06
35	H	0.746761	0.327293	8e-06
36	H	0.58285	0.256347	0.999997
37	C	0.404758	0.593704	0
38	C	0.423425	0.575937	0.953689
39	C	0.434661	0.564937	0.120941
40	C	0.454621	0.545861	0.121114
41	C	0.47139	0.529835	0.121028
42	C	0.492896	0.509281	0.120913
43	C	0.509657	0.493262	0.12082
44	C	0.531163	0.472708	0.120697
45	C	0.547931	0.456682	0.120599
46	C	0.567885	0.437599	0.120208
47	C	0.581982	0.431159	0.283823
48	S	0.604453	0.407655	0.236514
49	C	0.595242	0.406296	0
50	C	0.575604	0.423096	0.9543
51	C	0.424035	0.574834	0.286122
52	S	0.400563	0.597341	0.238654
53	H	0.428806	0.571022	0.808637
54	H	0.580313	0.438987	0.428907
55	H	0.567175	0.424975	0.81058
56	H	0.42878	0.570071	0.432437
57	C	0.406129	0.812404	0
58	C	0.423853	0.848541	0.953689
59	C	0.434827	0.870596	0.120941
60	C	0.453857	0.909314	0.121114
61	C	0.469843	0.941841	0.121028
62	C	0.490346	0.983556	0.120913
63	C	0.506325	0.016069	0.12082
64	C	0.526828	0.057785	0.120697
65	C	0.542815	0.090312	0.120599
66	C	0.561851	0.12903	0.120208
67	C	0.56823	0.149385	0.283823
68	S	0.591689	0.194989	0.236514
69	C	0.593111	0.187222	0
70	C	0.576364	0.151085	0.9543
71	C	0.424956	0.850241	0.286122
72	S	0.402504	0.804637	0.238654
73	H	0.428754	0.858752	0.808637
74	H	0.560381	0.139954	0.428907
75	H	0.57453	0.140874	0.81058
76	H	0.429709	0.859672	0.432437
77	C	0.188546	0.59333	0
78	C	0.152155	0.57496	0.953689
79	C	0.129945	0.563905	0.120941
80	C	0.090955	0.544264	0.121114
81	C	0.0582	0.527763	0.121028
82	C	0.016192	0.506601	0.120913
83	C	0.983451	0.490107	0.12082
84	C	0.941442	0.468945	0.120697
85	C	0.908687	0.452444	0.120599
86	C	0.869698	0.432809	0.120208
87	C	0.849222	0.418894	0.283823
88	S	0.803292	0.396794	0.236514
89	C	0.811081	0.405921	0
90	C	0.847465	0.425258	0.9543
91	C	0.150442	0.574363	0.286122
92	S	0.196366	0.59746	0.238654
93	H	0.141873	0.569665	0.808637
94	H	0.858739	0.420498	0.428907
95	H	0.857728	0.433589	0.81058
96	H	0.140944	0.569696	0.432437
