data_C90H36N12O6S18_2023-05-13_03:42:22
#******************************************
#
# CIF file created by Zeo++
# Zeo++ is an open source package to
# analyze microporous materials
#
#*******************************************

_cell_length_a		54.6305   
_cell_length_b		54.929   
_cell_length_c		7   
_cell_angle_alpha		90   
_cell_angle_beta		90   
_cell_angle_gamma		119.763   

_symmetry_space_group_name_H-M		'P1'
_symmetry_Int_Tables_number		1
_symmetry_cell_setting		Monoclinic

loop_
_symmetry_equiv_pos_as_xyz
'+x,+y,+z'

loop_
_atom_site_label
_atom_site_type_symbol
_atom_site_fract_x
_atom_site_fract_y
_atom_site_fract_z
1	C	0.361706	0.672601	0.999995
2	O	0.386581	0.676965	0.999991
3	C	0.339214	0.64344	0.999998
4	C	0.343575	0.621945	0
5	N	0.37142	0.626971	0
6	C	0.310447	0.638264	3e-06
7	O	0.290233	0.613129	5e-06
8	C	0.303542	0.66069	6e-06
9	C	0.277069	0.655278	5e-06
10	N	0.255183	0.626681	0
11	C	0.327116	0.689619	4e-06
12	O	0.321629	0.709013	7e-06
13	C	0.356347	0.696095	0.999999
14	C	0.377128	0.722486	0.999998
15	N	0.372959	0.745912	0
16	H	0.326357	0.60102	1e-06
17	H	0.271489	0.671342	8e-06
18	H	0.398142	0.726254	0.999997
19	C	0.638294	0.327399	0.999995
20	O	0.613419	0.323035	0.999991
21	C	0.660786	0.35656	0.999998
22	C	0.656425	0.378055	0
23	N	0.62858	0.373029	0
24	C	0.689553	0.361736	3e-06
25	O	0.709767	0.386871	5e-06
26	C	0.696458	0.33931	6e-06
27	C	0.722931	0.344722	5e-06
28	N	0.744817	0.373319	0
29	C	0.672884	0.310381	4e-06
30	O	0.678371	0.290987	7e-06
31	C	0.643653	0.303905	0.999999
32	C	0.622872	0.277514	0.999998
33	N	0.627041	0.254088	0
34	H	0.673643	0.39898	1e-06
35	H	0.728511	0.328658	8e-06
36	H	0.601858	0.273746	0.999997
37	C	0.61159	0.389806	0
38	C	0.620066	0.381434	0.158928
39	S	0.610124	0.391251	0.363042
40	C	0.594312	0.406867	0.238319
41	C	0.580711	0.420298	0.33576
42	C	0.57812	0.422858	0.53027
43	C	0.563337	0.437455	0.575769
44	C	0.554779	0.445906	0.415345
45	C	0.539439	0.461054	0.404201
46	N	0.532541	0.467867	0.240474
47	C	0.518047	0.482177	0.271345
48	C	0.507494	0.492599	0.130365
49	C	0.493181	0.506733	0.181487
50	C	0.489037	0.510824	0.372444
51	C	0.499591	0.500401	0.513445
52	C	0.513906	0.486266	0.462303
53	S	0.528789	0.471569	0.604074
54	N	0.474537	0.525141	0.403421
55	C	0.467656	0.531937	0.239323
56	C	0.4523	0.547101	0.234138
57	C	0.443465	0.555823	0.391808
58	C	0.428781	0.570324	0.342105
59	C	0.426527	0.572553	0.146741
60	C	0.412887	0.586022	0.049886
61	C	0.399597	0.599146	0.135424
62	C	0.38841	0.610194	0
63	C	0.393064	0.6056	0.814708
64	S	0.411183	0.587707	0.804437
65	S	0.442504	0.556776	0.028175
66	S	0.478303	0.521425	0.039745
67	S	0.564959	0.435852	0.211996
68	C	0.596888	0.404324	0.043206
69	H	0.631533	0.370109	0.166261
70	H	0.586389	0.414692	0.637911
71	H	0.559365	0.441378	0.721034
72	H	0.510635	0.489498	0.98099
73	H	0.496455	0.503498	0.662803
74	H	0.447414	0.551922	0.537352
75	H	0.420345	0.578653	0.447251
76	H	0.39798	0.600742	0.28855
77	H	0.386831	0.611756	0.685004
78	H	0.588581	0.41253	0.936158
79	C	0.609707	0.220243	0
80	C	0.618065	0.236986	0.158928
81	S	0.608265	0.21735	0.363042
82	C	0.592676	0.186121	0.238319
83	C	0.579268	0.159258	0.33576
84	C	0.576713	0.15414	0.53027
85	C	0.562142	0.124945	0.575769
86	C	0.553706	0.108043	0.415345
87	C	0.538585	0.077747	0.404201
88	N	0.531784	0.064122	0.240474
89	C	0.517498	0.035499	0.271345
90	C	0.507095	0.014657	0.130365
91	C	0.492986	0.986389	0.181487
92	C	0.488902	0.978206	0.372444
93	C	0.499307	0.999051	0.513445
94	C	0.513417	0.027321	0.462303
95	S	0.528088	0.056715	0.604074
96	N	0.47461	0.949569	0.403421
97	C	0.467826	0.935978	0.239323
98	C	0.452689	0.905651	0.234138
99	C	0.443982	0.888204	0.391808
100	C	0.429507	0.859203	0.342105
101	C	0.427282	0.854748	0.146741
102	C	0.413836	0.82781	0.049886
103	C	0.400735	0.801562	0.135424
104	C	0.389707	0.779467	0
105	C	0.394293	0.788656	0.814708
106	S	0.412154	0.824443	0.804437
107	S	0.443031	0.886303	0.028175
108	S	0.47832	0.957005	0.039745
109	S	0.563742	0.12815	0.211996
110	C	0.595214	0.191207	0.043206
111	H	0.629369	0.259634	0.166261
112	H	0.584865	0.170472	0.637911
113	H	0.558226	0.117099	0.721034
114	H	0.51019	0.020859	0.98099
115	H	0.496215	0.992857	0.662803
116	H	0.447876	0.896005	0.537352
117	H	0.421193	0.842544	0.447251
118	H	0.399143	0.79837	0.28855
119	H	0.388147	0.776345	0.685004
120	H	0.587023	0.174797	0.936158
121	C	0.778265	0.389516	0
122	C	0.761431	0.381146	0.158928
123	S	0.781174	0.390964	0.363042
124	C	0.812574	0.406578	0.238319
125	C	0.839583	0.420009	0.33576
126	C	0.844729	0.422568	0.53027
127	C	0.874083	0.437165	0.575769
128	C	0.891077	0.445616	0.415345
129	C	0.921539	0.460765	0.404201
130	N	0.935238	0.467577	0.240474
131	C	0.964017	0.481888	0.271345
132	C	0.984973	0.492309	0.130365
133	C	0.013395	0.506444	0.181487
134	C	0.021623	0.510536	0.372444
135	C	0.000664	0.500113	0.513445
136	C	0.97224	0.485978	0.462303
137	S	0.942685	0.471281	0.604074
138	N	0.050416	0.524855	0.403421
139	C	0.064081	0.53165	0.239323
140	C	0.094573	0.546813	0.234138
141	C	0.112115	0.555538	0.391808
142	C	0.141275	0.570038	0.342105
143	C	0.145754	0.572264	0.146741
144	C	0.172839	0.585733	0.049886
145	C	0.199231	0.598857	0.135424
146	C	0.221445	0.609904	0
147	C	0.212206	0.605309	0.814708
148	S	0.176224	0.587415	0.804437
149	S	0.114027	0.556486	0.028175
150	S	0.042939	0.521135	0.039745
151	S	0.870861	0.435563	0.211996
152	C	0.80746	0.404034	0.043206
153	H	0.738659	0.369822	0.166261
154	H	0.828308	0.414402	0.637911
155	H	0.881972	0.441088	0.721034
156	H	0.978737	0.489208	0.98099
157	H	0.006892	0.503211	0.662803
158	H	0.104272	0.551638	0.537352
159	H	0.158025	0.578368	0.447251
160	H	0.20244	0.600454	0.28855
161	H	0.224584	0.611463	0.685004
162	H	0.823959	0.412238	0.936158
