data_C84H36N12O6S15_2023-05-11_10:56:15
#******************************************
#
# CIF file created by Zeo++
# Zeo++ is an open source package to
# analyze microporous materials
#
#*******************************************

_cell_length_a		45.4407   
_cell_length_b		45.7392   
_cell_length_c		7   
_cell_angle_alpha		90   
_cell_angle_beta		90   
_cell_angle_gamma		119.715   

_symmetry_space_group_name_H-M		'P1'
_symmetry_Int_Tables_number		1
_symmetry_cell_setting		Monoclinic

loop_
_symmetry_equiv_pos_as_xyz
'+x,+y,+z'

loop_
_atom_site_label
_atom_site_type_symbol
_atom_site_fract_x
_atom_site_fract_y
_atom_site_fract_z
1	C	0.367437	0.67379	0.999995
2	O	0.397338	0.679028	0.999991
3	C	0.34043	0.638786	0.999998
4	C	0.345698	0.612985	0
5	N	0.379169	0.619019	0
6	C	0.305851	0.632573	3e-06
7	O	0.281579	0.602403	5e-06
8	C	0.297524	0.659493	6e-06
9	C	0.265703	0.652997	5e-06
10	N	0.239424	0.618671	0
11	C	0.325832	0.694217	4e-06
12	O	0.319213	0.717497	7e-06
13	C	0.360966	0.70199	0.999999
14	C	0.38592	0.733669	0.999998
15	N	0.380881	0.761789	0
16	H	0.325022	0.587868	1e-06
17	H	0.258976	0.672279	8e-06
18	H	0.41118	0.738192	0.999997
19	C	0.632563	0.32621	0.999995
20	O	0.602662	0.320972	0.999991
21	C	0.65957	0.361214	0.999998
22	C	0.654302	0.387015	0
23	N	0.620831	0.380981	0
24	C	0.694149	0.367427	3e-06
25	O	0.718421	0.397597	5e-06
26	C	0.702476	0.340507	6e-06
27	C	0.734297	0.347003	5e-06
28	N	0.760576	0.381329	0
29	C	0.674168	0.305783	4e-06
30	O	0.680787	0.282503	7e-06
31	C	0.639034	0.29801	0.999999
32	C	0.61408	0.266331	0.999998
33	N	0.619119	0.238211	0
34	H	0.674978	0.412132	1e-06
35	H	0.741024	0.327721	8e-06
36	H	0.58882	0.261808	0.999997
37	C	0.399614	0.59888	0
38	C	0.375856	0.593248	0.137313
39	C	0.373549	0.5689	0.27341
40	C	0.395673	0.557231	0.232845
41	C	0.399406	0.530279	0.354787
42	C	0.380559	0.515373	0.516318
43	S	0.39025	0.487019	0.615976
44	C	0.420349	0.494838	0.445857
45	C	0.439093	0.476674	0.449772
46	C	0.435404	0.453526	0.305761
47	C	0.453458	0.435742	0.305762
48	C	0.476802	0.439528	0.449773
49	C	0.495245	0.421063	0.445856
50	C	0.518796	0.423114	0.31379
51	C	0.53114	0.40052	0.354785
52	C	0.558366	0.396976	0.232843
53	C	0.570273	0.375127	0.273409
54	C	0.594838	0.377552	0.137314
55	C	0.600386	0.40112	0
56	S	0.576887	0.420122	0.03152
57	C	0.516201	0.381763	0.516316
58	S	0.487525	0.391202	0.615976
59	C	0.482251	0.463085	0.597924
60	N	0.503833	0.471528	0.746011
61	S	0.5	0.5	0.872826
62	N	0.471239	0.503634	0.746011
63	C	0.462839	0.482205	0.597923
64	C	0.422284	0.518181	0.313793
65	S	0.418931	0.57571	0.031522
66	H	0.360852	0.605674	0.141746
67	H	0.356403	0.560704	0.394103
68	H	0.361364	0.519349	0.582691
69	H	0.417624	0.448811	0.189351
70	H	0.4488	0.418101	0.189351
71	H	0.526932	0.440372	0.194005
72	H	0.562098	0.358094	0.394101
73	H	0.607467	0.362761	0.141748
74	H	0.520325	0.362772	0.58269
75	H	0.439658	0.52634	0.19401
76	C	0.400977	0.802066	0
77	C	0.406765	0.78413	0.137313
78	C	0.431217	0.806054	0.27341
79	C	0.442803	0.839573	0.232845
80	C	0.469832	0.870068	0.354787
81	C	0.484902	0.866218	0.516318
82	S	0.513305	0.90401	0.615976
83	C	0.505285	0.926053	0.445857
84	C	0.523409	0.962682	0.449772
85	C	0.546663	0.982043	0.305761
86	C	0.56441	0.01761	0.305762
87	C	0.560476	0.036971	0.449773
88	C	0.578903	0.0736	0.445856
89	C	0.57671	0.094892	0.31379
90	C	0.599317	0.129585	0.354785
91	C	0.602718	0.16008	0.232843
92	C	0.624579	0.193599	0.273409
93	C	0.622005	0.215523	0.137314
94	C	0.598318	0.197586	0
95	S	0.57938	0.155413	0.03152
96	C	0.618228	0.133435	0.516316
97	S	0.608919	0.095643	0.615976
98	C	0.536801	0.018947	0.597924
99	N	0.528203	0.031933	0.746011
100	S	0.499648	0.999827	0.872826
101	N	0.496164	0.967721	0.746011
102	C	0.517721	0.980706	0.597923
103	C	0.481844	0.904761	0.313793
104	S	0.424122	0.844239	0.031522
105	H	0.39438	0.756913	0.141746
106	H	0.439542	0.797217	0.394103
107	H	0.481021	0.84325	0.582691
108	H	0.551498	0.969118	0.189351
109	H	0.582142	0.030535	0.189351
110	H	0.559341	0.085792	0.194005
111	H	0.641722	0.202436	0.394101
112	H	0.636778	0.24274	0.141748
113	H	0.637267	0.156403	0.58269
114	H	0.473556	0.913861	0.19401
115	C	0.198883	0.598532	0
116	C	0.216853	0.6221	0.137313
117	C	0.194707	0.624524	0.27341
118	C	0.160998	0.602675	0.232845
119	C	0.130235	0.599131	0.354787
120	C	0.134013	0.617887	0.516318
121	S	0.095919	0.608449	0.615976
122	C	0.07384	0.578587	0.445857
123	C	0.036972	0.560123	0.449772
124	C	0.017406	0.563909	0.305761
125	C	0.981606	0.546126	0.305762
126	C	0.962196	0.522979	0.449773
127	C	0.925326	0.504815	0.445856
128	C	0.903968	0.481472	0.31379
129	C	0.869017	0.469374	0.354785
130	C	0.838389	0.442422	0.232843
131	C	0.804622	0.430752	0.273409
132	C	0.782631	0.406403	0.137314
133	C	0.80077	0.400772	0
134	S	0.843207	0.423942	0.03152
135	C	0.865044	0.48428	0.516316
136	S	0.903029	0.512633	0.615976
137	C	0.980422	0.517447	0.597924
138	N	0.967437	0.496018	0.746011
139	S	0.999826	0.499652	0.872826
140	N	0.032071	0.528123	0.746011
141	C	0.018914	0.536567	0.597923
142	C	0.095345	0.576536	0.313793
143	S	0.156421	0.579529	0.031522
144	H	0.244241	0.636892	0.141746
145	H	0.20353	0.641557	0.394103
146	H	0.157089	0.636879	0.582691
147	H	0.030352	0.58155	0.189351
148	H	0.968532	0.550842	0.189351
149	H	0.913201	0.473314	0.194005
150	H	0.795653	0.438948	0.394101
151	H	0.755229	0.393977	0.141748
152	H	0.841882	0.480303	0.58269
153	H	0.086259	0.559278	0.19401
