data_C66H24N12O6S12_2023-05-12_17:58:01
#******************************************
#
# CIF file created by Zeo++
# Zeo++ is an open source package to
# analyze microporous materials
#
#*******************************************

_cell_length_a		42.8306   
_cell_length_b		43.1291   
_cell_length_c		7   
_cell_angle_alpha		90   
_cell_angle_beta		90   
_cell_angle_gamma		119.698   

_symmetry_space_group_name_H-M		'P1'
_symmetry_Int_Tables_number		1
_symmetry_cell_setting		Monoclinic

loop_
_symmetry_equiv_pos_as_xyz
'+x,+y,+z'

loop_
_atom_site_label
_atom_site_type_symbol
_atom_site_fract_x
_atom_site_fract_y
_atom_site_fract_z
1	C	0.369513	0.67422	0.999995
2	O	0.401234	0.679774	0.999991
3	C	0.340873	0.637104	0.999998
4	C	0.346472	0.609746	0
5	N	0.381979	0.616144	0
6	C	0.304189	0.630516	3e-06
7	O	0.278449	0.598526	5e-06
8	C	0.295344	0.65906	6e-06
9	C	0.261587	0.652172	5e-06
10	N	0.233719	0.615775	0
11	C	0.325364	0.69588	4e-06
12	O	0.318333	0.720564	7e-06
13	C	0.362637	0.704122	0.999999
14	C	0.3891	0.737711	0.999998
15	N	0.383743	0.767528	0
16	H	0.324545	0.583114	1e-06
17	H	0.254443	0.672617	8e-06
18	H	0.415897	0.742508	0.999997
19	C	0.630487	0.32578	0.999995
20	O	0.598766	0.320226	0.999991
21	C	0.659127	0.362896	0.999998
22	C	0.653528	0.390254	0
23	N	0.618021	0.383856	0
24	C	0.695811	0.369484	3e-06
25	O	0.721551	0.401474	5e-06
26	C	0.704656	0.34094	6e-06
27	C	0.738413	0.347828	5e-06
28	N	0.766281	0.384225	0
29	C	0.674636	0.30412	4e-06
30	O	0.681667	0.279436	7e-06
31	C	0.637363	0.295878	0.999999
32	C	0.6109	0.262289	0.999998
33	N	0.616257	0.232472	0
34	H	0.675455	0.416886	1e-06
35	H	0.745557	0.327383	8e-06
36	H	0.584103	0.257492	0.999997
37	C	0.596322	0.40521	0
38	C	0.578411	0.422837	0.052755
39	C	0.566778	0.434285	0.88949
40	C	0.545438	0.455286	0.902548
41	N	0.53727	0.463324	0.069638
42	C	0.518671	0.481627	0.044611
43	C	0.505607	0.494484	0.189879
44	C	0.487185	0.512613	0.144705
45	C	0.48133	0.518374	0.955393
46	C	0.494395	0.505518	0.810125
47	C	0.512817	0.487389	0.8553
48	S	0.531411	0.469091	0.707234
49	N	0.462732	0.536677	0.930366
50	C	0.454563	0.544715	0.097456
51	C	0.433223	0.565716	0.110513
52	C	0.423559	0.575225	0.279314
53	S	0.400582	0.597836	0.239867
54	C	0.403678	0.59479	0
55	C	0.42159	0.577164	0.947247
56	S	0.46859	0.530911	0.29277
57	C	0.576441	0.424776	0.720687
58	S	0.599418	0.402164	0.760133
59	H	0.573681	0.427491	0.199309
60	H	0.510047	0.490114	0.337891
61	H	0.489955	0.509888	0.662113
62	H	0.428596	0.570269	0.42438
63	H	0.42632	0.572509	0.800693
64	H	0.571405	0.429733	0.575622
65	C	0.594203	0.189396	0
66	C	0.576616	0.154143	0.052755
67	C	0.565193	0.131247	0.88949
68	C	0.544239	0.089245	0.902548
69	N	0.536219	0.073169	0.069638
70	C	0.517957	0.036563	0.044611
71	C	0.50513	0.01085	0.189879
72	C	0.487042	0.974592	0.144705
73	C	0.481293	0.963068	0.955393
74	C	0.49412	0.988782	0.810125
75	C	0.512208	0.025039	0.8553
76	S	0.530466	0.061636	0.707234
77	N	0.463031	0.926463	0.930366
78	C	0.455011	0.910386	0.097456
79	C	0.434058	0.868384	0.110513
80	C	0.42457	0.849365	0.279314
81	S	0.402009	0.804143	0.239867
82	C	0.405049	0.810236	0
83	C	0.422636	0.845489	0.947247
84	S	0.468784	0.937995	0.29277
85	C	0.574681	0.150266	0.720687
86	S	0.597242	0.195489	0.760133
87	H	0.571972	0.144834	0.199309
88	H	0.50949	0.019589	0.337891
89	H	0.48976	0.980042	0.662113
90	H	0.429515	0.859279	0.42438
91	H	0.427279	0.854798	0.800693
92	H	0.569735	0.140352	0.575622
93	C	0.808917	0.404841	0
94	C	0.844416	0.422467	0.052755
95	C	0.867471	0.433915	0.88949
96	C	0.909765	0.454916	0.902548
97	N	0.925953	0.462954	0.069638
98	C	0.962813	0.481257	0.044611
99	C	0.988705	0.494113	0.189879
100	C	0.025215	0.512242	0.144705
101	C	0.036819	0.518004	0.955393
102	C	0.010927	0.505147	0.810125
103	C	0.974417	0.487018	0.8553
104	S	0.937565	0.46872	0.707234
105	N	0.073679	0.536307	0.930366
106	C	0.089868	0.544345	0.097456
107	C	0.132162	0.565346	0.110513
108	C	0.151313	0.574856	0.279314
109	S	0.19685	0.597468	0.239867
110	C	0.190715	0.594421	0
111	C	0.155216	0.576794	0.947247
112	S	0.062067	0.530541	0.29277
113	C	0.84832	0.424405	0.720687
114	S	0.802782	0.401794	0.760133
115	H	0.853789	0.427122	0.199309
116	H	0.979905	0.489744	0.337891
117	H	0.019727	0.509517	0.662113
118	H	0.141331	0.5699	0.42438
119	H	0.145842	0.572139	0.800693
120	H	0.858302	0.429362	0.575622
