data_C114H54N6O6S12_2023-05-12_22:01:05
#******************************************
#
# CIF file created by Zeo++
# Zeo++ is an open source package to
# analyze microporous materials
#
#*******************************************

_cell_length_a		53.9862   
_cell_length_b		54.2847   
_cell_length_c		7   
_cell_angle_alpha		90   
_cell_angle_beta		90   
_cell_angle_gamma		119.76   

_symmetry_space_group_name_H-M		'P1'
_symmetry_Int_Tables_number		1
_symmetry_cell_setting		Monoclinic

loop_
_symmetry_equiv_pos_as_xyz
'+x,+y,+z'

loop_
_atom_site_label
_atom_site_type_symbol
_atom_site_fract_x
_atom_site_fract_y
_atom_site_fract_z
1	C	0.362045	0.672671	0.999995
2	O	0.387216	0.677087	0.999991
3	C	0.339286	0.643165	0.999998
4	C	0.3437	0.621415	0
5	N	0.371877	0.626501	0
6	C	0.310176	0.637927	3e-06
7	O	0.289722	0.612495	5e-06
8	C	0.303187	0.66062	6e-06
9	C	0.276398	0.655144	5e-06
10	N	0.254253	0.626208	0
11	C	0.32704	0.689891	4e-06
12	O	0.321487	0.709514	7e-06
13	C	0.35662	0.696443	0.999999
14	C	0.377648	0.723147	0.999998
15	N	0.373427	0.746851	0
16	H	0.326278	0.600243	1e-06
17	H	0.270751	0.671397	8e-06
18	H	0.398912	0.72696	0.999997
19	C	0.637955	0.327329	0.999995
20	O	0.612784	0.322913	0.999991
21	C	0.660714	0.356835	0.999998
22	C	0.6563	0.378585	0
23	N	0.628123	0.373499	0
24	C	0.689824	0.362073	3e-06
25	O	0.710278	0.387505	5e-06
26	C	0.696813	0.33938	6e-06
27	C	0.723602	0.344856	5e-06
28	N	0.745747	0.373792	0
29	C	0.67296	0.310109	4e-06
30	O	0.678513	0.290486	7e-06
31	C	0.64338	0.303557	0.999999
32	C	0.622352	0.276853	0.999998
33	N	0.626573	0.253149	0
34	H	0.673722	0.399757	1e-06
35	H	0.729249	0.328603	8e-06
36	H	0.601088	0.27304	0.999997
37	C	0.38907	0.609525	0
38	C	0.409739	0.631076	0.106656
39	C	0.43529	0.629361	0.110437
40	C	0.433108	0.606546	0.007168
41	C	0.455212	0.599071	0.982007
42	C	0.484226	0.616703	0.009656
43	C	0.50042	0.602913	0.974715
44	C	0.483375	0.574964	0.922071
45	C	0.491813	0.553855	0.874568
46	C	0.495736	0.549994	0.681245
47	C	0.504181	0.530619	0.626664
48	C	0.508954	0.514734	0.764051
49	C	0.517499	0.495375	0.708649
50	C	0.522316	0.479441	0.844698
51	C	0.518746	0.482165	0.041693
52	C	0.523431	0.466271	0.184282
53	C	0.531932	0.445208	0.13682
54	C	0.514996	0.417367	0.081674
55	C	0.531234	0.403588	0.047778
56	C	0.560209	0.421123	0.0781
57	C	0.582901	0.414338	0.057659
58	C	0.611953	0.431945	0.086812
59	C	0.628212	0.418132	0.053464
60	C	0.61093	0.390475	0
61	S	0.576043	0.380995	0.989349
62	S	0.567065	0.454333	0.148116
63	C	0.519464	0.470104	0.37759
64	C	0.511015	0.489476	0.432154
65	C	0.50628	0.505385	0.294766
66	C	0.497733	0.524742	0.350169
67	C	0.492932	0.540687	0.214125
68	C	0.496504	0.537964	0.017138
69	C	0.505158	0.518246	0.960262
70	C	0.510093	0.501884	0.098563
71	S	0.448198	0.56577	0.914205
72	S	0.399722	0.587631	0.905855
73	H	0.406998	0.647228	0.178531
74	H	0.454324	0.644248	0.187204
75	H	0.493724	0.638738	0.052052
76	H	0.523414	0.613004	0.987735
77	H	0.492202	0.56216	0.571825
78	H	0.507014	0.528077	0.47547
79	H	0.520569	0.492434	0.558505
80	H	0.529051	0.46474	0.793747
81	H	0.49204	0.407313	0.066011
82	H	0.521712	0.381641	0.003046
83	H	0.62147	0.453944	0.130455
84	H	0.651162	0.428175	0.068445
85	H	0.522935	0.457894	0.487005
86	H	0.508125	0.491978	0.583313
87	H	0.494622	0.527654	0.500285
88	H	0.486161	0.555362	0.265013
89	C	0.390373	0.780803	0
90	C	0.368655	0.779861	0.106656
91	C	0.370253	0.806918	0.110437
92	C	0.393149	0.827458	0.007168
93	C	0.400541	0.856826	0.982007
94	C	0.382714	0.868065	0.009656
95	C	0.396468	0.897854	0.974715
96	C	0.424586	0.908758	0.922071
97	C	0.44572	0.938135	0.874568
98	C	0.449574	0.945871	0.681245
99	C	0.468969	0.973531	0.626664
100	C	0.484881	0.994074	0.764051
101	C	0.504258	0.021817	0.708649
102	C	0.520218	0.042453	0.844698
103	C	0.517503	0.0362	0.041693
104	C	0.533424	0.056666	0.184282
105	C	0.554512	0.086062	0.13682
106	C	0.582521	0.096966	0.081674
107	C	0.596264	0.126788	0.047778
108	C	0.578535	0.138084	0.0781
109	C	0.585231	0.167348	0.057659
110	C	0.567429	0.178649	0.086812
111	C	0.581207	0.208527	0.053464
112	C	0.609034	0.218904	0
113	S	0.618711	0.193727	0.989349
114	S	0.545189	0.111836	0.148116
115	C	0.529599	0.048916	0.37759
116	C	0.510207	0.021255	0.432154
117	C	0.494271	0.000724	0.294766
118	C	0.474895	0.972981	0.350169
119	C	0.458924	0.952351	0.214125
120	C	0.461638	0.958605	0.017138
121	C	0.481376	0.986813	0.960262
122	C	0.497765	0.007992	0.098563
123	S	0.433979	0.883008	0.914205
124	S	0.412284	0.813159	0.905855
125	H	0.352466	0.761067	0.178531
126	H	0.355227	0.810986	0.187204
127	H	0.360565	0.855559	0.052052
128	H	0.386235	0.910625	0.987735
129	H	0.437387	0.930257	0.571825
130	H	0.471505	0.978871	0.47547
131	H	0.507193	0.027789	0.558505
132	H	0.534933	0.063765	0.793747
133	H	0.592717	0.084195	0.066011
134	H	0.618325	0.139182	0.003046
135	H	0.545316	0.166198	0.130455
136	H	0.571022	0.221302	0.068445
137	H	0.54183	0.064511	0.487005
138	H	0.507711	0.015898	0.583313
139	H	0.47199	0.966998	0.500285
140	H	0.444236	0.931029	0.265013
141	C	0.220113	0.609232	0
142	C	0.221163	0.588623	0.106656
143	C	0.194014	0.563281	0.110437
144	C	0.1733	0.565556	0.007168
145	C	0.143804	0.543663	0.982007
146	C	0.132617	0.514792	0.009656
147	C	0.102669	0.498793	0.974715
148	C	0.091595	0.515838	0.922071
149	C	0.062024	0.507569	0.874568
150	C	0.054246	0.503695	0.681245
151	C	0.026407	0.495411	0.626664
152	C	0.005723	0.490753	0.764051
153	C	0.9778	0.482368	0.708649
154	C	0.957023	0.477666	0.844698
155	C	0.963308	0.481194	0.041693
156	C	0.942701	0.476623	0.184282
157	C	0.913113	0.468291	0.13682
158	C	0.90204	0.485228	0.081674
159	C	0.872059	0.469185	0.047778
160	C	0.860813	0.440353	0.0781
161	C	0.831425	0.417874	0.057659
162	C	0.820175	0.388966	0.086812
163	C	0.790138	0.372901	0.053464
164	C	0.779594	0.390181	0
165	S	0.804803	0.424838	0.989349
166	S	0.887304	0.433392	0.148116
167	C	0.950494	0.48054	0.37759
168	C	0.978335	0.488829	0.432154
169	C	0.999006	0.493451	0.294766
170	C	0.026929	0.501837	0.350169
171	C	0.0477	0.506522	0.214125
172	C	0.041414	0.502991	0.017138
173	C	0.013023	0.494501	0.960262
174	C	0.9917	0.489684	0.098563
175	S	0.11738	0.550782	0.914205
176	S	0.18755	0.59877	0.905855
177	H	0.240093	0.591264	0.178531
178	H	0.190006	0.544326	0.187204
179	H	0.145268	0.505263	0.052052
180	H	0.089908	0.475932	0.987735
181	H	0.069967	0.507143	0.571825
182	H	0.021038	0.492612	0.47547
183	H	0.971795	0.479337	0.558505
184	H	0.935573	0.471055	0.793747
185	H	0.9148	0.508052	0.066011
186	H	0.859519	0.478737	0.003046
187	H	0.832772	0.379418	0.130455
188	H	0.777373	0.350084	0.068445
189	H	0.934792	0.477155	0.487005
190	H	0.983721	0.491685	0.583313
191	H	0.032945	0.504909	0.500285
192	H	0.06916	0.513169	0.265013
