data_C108H54N6O6S18_2023-05-13_07:28:47
#******************************************
#
# CIF file created by Zeo++
# Zeo++ is an open source package to
# analyze microporous materials
#
#*******************************************

_cell_length_a		59.4448   
_cell_length_b		59.7432   
_cell_length_c		7   
_cell_angle_alpha		90   
_cell_angle_beta		90   
_cell_angle_gamma		119.782   

_symmetry_space_group_name_H-M		'P1'
_symmetry_Int_Tables_number		1
_symmetry_cell_setting		Monoclinic

loop_
_symmetry_equiv_pos_as_xyz
'+x,+y,+z'

loop_
_atom_site_label
_atom_site_type_symbol
_atom_site_fract_x
_atom_site_fract_y
_atom_site_fract_z
1	C	0.359411	0.672124	0.999995
2	O	0.382273	0.676137	0.999991
3	C	0.33873	0.645307	0.999998
4	C	0.34273	0.625541	0
5	N	0.368321	0.630163	0
6	C	0.312291	0.640547	3e-06
7	O	0.293705	0.617434	5e-06
8	C	0.305953	0.661171	6e-06
9	C	0.281622	0.656194	5e-06
10	N	0.261498	0.629896	0
11	C	0.327628	0.687773	4e-06
12	O	0.322592	0.705608	7e-06
13	C	0.354493	0.693728	0.999999
14	C	0.373601	0.717997	0.999998
15	N	0.369778	0.739541	0
16	H	0.326899	0.606298	1e-06
17	H	0.276499	0.670966	8e-06
18	H	0.392915	0.721463	0.999997
19	C	0.640589	0.327876	0.999995
20	O	0.617727	0.323863	0.999991
21	C	0.66127	0.354693	0.999998
22	C	0.65727	0.374459	0
23	N	0.631679	0.369837	0
24	C	0.687709	0.359453	3e-06
25	O	0.706295	0.382566	5e-06
26	C	0.694047	0.338829	6e-06
27	C	0.718378	0.343806	5e-06
28	N	0.738502	0.370104	0
29	C	0.672372	0.312227	4e-06
30	O	0.677408	0.294392	7e-06
31	C	0.645507	0.306272	0.999999
32	C	0.626399	0.282003	0.999998
33	N	0.630222	0.260459	0
34	H	0.673101	0.393702	1e-06
35	H	0.723501	0.329034	8e-06
36	H	0.607085	0.278537	0.999997
37	C	0.616071	0.385265	0
38	C	0.629171	0.379493	0.134237
39	S	0.626468	0.390018	0.355398
40	C	0.607593	0.402426	0.271496
41	C	0.597977	0.415048	0.397821
42	C	0.602925	0.420317	0.590513
43	C	0.590115	0.433021	0.669661
44	C	0.575555	0.437416	0.536655
45	C	0.560141	0.449669	0.571291
46	C	0.551246	0.452781	0.746408
47	C	0.536725	0.465854	0.732751
48	C	0.534653	0.472467	0.547211
49	C	0.521584	0.48622	0.476638
50	C	0.524677	0.508129	0.573005
51	C	0.51219	0.521372	0.508954
52	C	0.496166	0.512945	0.347428
53	C	0.483078	0.526679	0.276836
54	C	0.480968	0.533243	0.091293
55	C	0.466386	0.546257	0.077416
56	C	0.457395	0.549332	0.252319
57	C	0.442011	0.561516	0.292243
58	C	0.433638	0.565225	0.467531
59	C	0.418776	0.577966	0.453317
60	C	0.415882	0.583889	0.26725
61	C	0.402105	0.596702	0.199299
62	C	0.398482	0.601858	0.01209
63	C	0.383929	0.614735	0
64	C	0.376605	0.619333	0.174448
65	S	0.387458	0.607932	0.355212
66	S	0.431481	0.573736	0.113249
67	S	0.467028	0.536169	0.43095
68	C	0.493083	0.49104	0.251012
69	C	0.505568	0.477798	0.315069
70	S	0.550716	0.462994	0.392969
71	S	0.577688	0.42578	0.31747
72	C	0.603683	0.398335	0.076308
73	H	0.640163	0.369693	0.114515
74	H	0.615246	0.415418	0.673668
75	H	0.591821	0.438746	0.818155
76	H	0.554754	0.445876	0.87994
77	H	0.528026	0.469982	0.853892
78	H	0.537121	0.515355	0.698128
79	H	0.51539	0.538514	0.586113
80	H	0.489644	0.529099	0.970069
81	H	0.462809	0.55298	0.943247
82	H	0.437831	0.559158	0.602344
83	H	0.410661	0.582424	0.576416
84	H	0.40593	0.596593	0.889181
85	H	0.365491	0.628743	0.205552
86	H	0.480665	0.483827	0.125711
87	H	0.502393	0.46067	0.237767
88	H	0.59244	0.40448	0.991988
89	C	0.61428	0.229336	0
90	C	0.620011	0.248089	0.134237
91	S	0.609469	0.234928	0.355398
92	C	0.597108	0.203835	0.271496
93	C	0.584493	0.181721	0.397821
94	C	0.579187	0.181388	0.590513
95	C	0.566503	0.156021	0.669661
96	C	0.562159	0.137189	0.536655
97	C	0.54994	0.109687	0.571291
98	C	0.546858	0.097758	0.746408
99	C	0.533811	0.070324	0.732751
100	C	0.52719	0.061684	0.547211
101	C	0.513455	0.035016	0.476638
102	C	0.491471	0.016273	0.573005
103	C	0.478245	0.990692	0.508954
104	C	0.486766	0.983172	0.347428
105	C	0.473051	0.956505	0.276836
106	C	0.466478	0.947875	0.091293
107	C	0.453491	0.920439	0.077416
108	C	0.450446	0.908451	0.252319
109	C	0.438296	0.881048	0.292243
110	C	0.434613	0.869042	0.467531
111	C	0.421901	0.841601	0.453317
112	C	0.415975	0.832832	0.26725
113	C	0.403185	0.806396	0.199299
114	C	0.398031	0.797666	0.01209
115	C	0.385181	0.770397	0
116	C	0.380603	0.758548	0.174448
117	S	0.391988	0.780673	0.355212
118	S	0.426088	0.858427	0.113249
119	S	0.463605	0.931122	0.43095
120	C	0.508746	0.00192	0.251012
121	C	0.521971	0.027499	0.315069
122	S	0.536618	0.087063	0.392969
123	S	0.573819	0.150892	0.31747
124	C	0.601228	0.204025	0.076308
125	H	0.62979	0.26876	0.114515
126	H	0.584046	0.198497	0.673668
127	H	0.560755	0.152015	0.818155
128	H	0.553767	0.108114	0.87994
129	H	0.52971	0.057578	0.853892
130	H	0.48417	0.021434	0.698128
131	H	0.46104	0.976802	0.586113
132	H	0.470595	0.960614	0.970069
133	H	0.446764	0.910195	0.943247
134	H	0.440679	0.879246	0.602344
135	H	0.417466	0.829107	0.576416
136	H	0.403278	0.810302	0.889181
137	H	0.371214	0.738144	0.205552
138	H	0.516034	0.996773	0.125711
139	H	0.539161	0.041399	0.237767
140	H	0.595115	0.186745	0.991988
141	C	0.769247	0.384999	0
142	C	0.750416	0.372018	0.134237
143	S	0.763661	0.374655	0.355398
144	C	0.794896	0.39334	0.271496
145	C	0.817128	0.402832	0.397821
146	C	0.817485	0.397896	0.590513
147	C	0.84298	0.410558	0.669661
148	C	0.861883	0.424994	0.536655
149	C	0.889516	0.440244	0.571291
150	C	0.901493	0.449062	0.746408
151	C	0.929061	0.463422	0.732751
152	C	0.937755	0.46545	0.547211
153	C	0.964558	0.478364	0.476638
154	C	0.98345	0.475198	0.573005
155	C	0.009162	0.487537	0.508954
156	C	0.016666	0.503483	0.347428
157	C	0.043468	0.516417	0.276836
158	C	0.052151	0.518483	0.091293
159	C	0.079721	0.532904	0.077416
160	C	0.091757	0.541816	0.252319
161	C	0.119291	0.557037	0.292243
162	C	0.131347	0.565334	0.467531
163	C	0.158921	0.580033	0.453317
164	C	0.167741	0.58288	0.26725
165	C	0.194308	0.596502	0.199299
166	C	0.203084	0.600076	0.01209
167	C	0.230487	0.614468	0
168	C	0.24239	0.62172	0.174448
169	S	0.220152	0.610995	0.355212
170	S	0.142029	0.567438	0.113249
171	S	0.068964	0.53231	0.43095
172	C	0.997769	0.50664	0.251012
173	C	0.972059	0.494303	0.315069
174	S	0.912263	0.449543	0.392969
175	S	0.84809	0.422928	0.31747
176	C	0.794687	0.39724	0.076308
177	H	0.729644	0.361147	0.114515
178	H	0.800306	0.385685	0.673668
179	H	0.847021	0.408839	0.818155
180	H	0.891077	0.44561	0.87994
181	H	0.941862	0.472041	0.853892
182	H	0.978307	0.462811	0.698128
183	H	0.023167	0.484284	0.586113
184	H	0.039358	0.509888	0.970069
185	H	0.090025	0.536426	0.943247
186	H	0.121087	0.561197	0.602344
187	H	0.17147	0.58807	0.576416
188	H	0.19039	0.592705	0.889181
189	H	0.262893	0.632713	0.205552
190	H	0.002898	0.519	0.125711
191	H	0.958044	0.49753	0.237767
192	H	0.812043	0.408376	0.991988
