data_C60H36N6O6S3_2023-05-29_14:29:13
#******************************************
#
# CIF file created by Zeo++
# Zeo++ is an open source package to
# analyze microporous materials
#
#*******************************************

_cell_length_a		34.4967   
_cell_length_b		34.7954   
_cell_length_c		7   
_cell_angle_alpha		90   
_cell_angle_beta		90   
_cell_angle_gamma		119.625   

_symmetry_space_group_name_H-M		'P1'
_symmetry_Int_Tables_number		1
_symmetry_cell_setting		Monoclinic

loop_
_symmetry_equiv_pos_as_xyz
'+x,+y,+z'

loop_
_atom_site_label
_atom_site_type_symbol
_atom_site_fract_x
_atom_site_fract_y
_atom_site_fract_z
1	C	0.378239	0.676022	0.999995
2	O	0.417613	0.682901	0.999991
3	C	0.342748	0.63005	0.999998
4	C	0.349749	0.596164	0
5	N	0.393823	0.604088	0
6	C	0.297214	0.62189	3e-06
7	O	0.265313	0.582267	5e-06
8	C	0.28618	0.657245	6e-06
9	C	0.244281	0.648713	5e-06
10	N	0.209747	0.603631	0
11	C	0.323386	0.70285	4e-06
12	O	0.314611	0.733424	7e-06
13	C	0.369648	0.713059	0.999999
14	C	0.402443	0.754664	0.999998
15	N	0.395737	0.791595	0
16	H	0.322574	0.563177	1e-06
17	H	0.235373	0.674037	8e-06
18	H	0.435705	0.760604	0.999997
19	C	0.621761	0.323978	0.999995
20	O	0.582387	0.317099	0.999991
21	C	0.657252	0.36995	0.999998
22	C	0.650251	0.403836	0
23	N	0.606177	0.395912	0
24	C	0.702786	0.37811	3e-06
25	O	0.734687	0.417733	5e-06
26	C	0.71382	0.342755	6e-06
27	C	0.755719	0.351287	5e-06
28	N	0.790253	0.396369	0
29	C	0.676614	0.29715	4e-06
30	O	0.685389	0.266576	7e-06
31	C	0.630352	0.286941	0.999999
32	C	0.597557	0.245336	0.999998
33	N	0.604263	0.208405	0
34	H	0.677426	0.436823	1e-06
35	H	0.764627	0.325963	8e-06
36	H	0.564295	0.239396	0.999997
37	C	0.420803	0.577639	0
38	C	0.431563	0.567045	0.832123
39	C	0.45554	0.543523	0.866185
40	C	0.459598	0.539581	0.055177
41	C	0.48056	0.519035	0.155078
42	C	0.482556	0.517091	0.351102
43	S	0.509962	0.490226	0.425454
44	C	0.520225	0.480147	0.195305
45	C	0.543751	0.457083	0.15052
46	C	0.560396	0.440709	0.281566
47	C	0.582149	0.419401	0.189198
48	C	0.579197	0.422361	0
49	C	0.554572	0.446532	0.953322
50	C	0.502356	0.497659	0.067094
51	C	0.437432	0.561354	0.161813
52	H	0.423915	0.574521	0.692184
53	H	0.467863	0.531408	0.752864
54	H	0.469368	0.53003	0.45768
55	H	0.558689	0.442331	0.435253
56	H	0.59803	0.403796	0.26419
57	H	0.575581	0.47693	0.873325
58	H	0.523981	0.425588	0.873109
59	H	0.504973	0.495084	0.913925
60	H	0.461415	0.588927	0.249887
61	H	0.409709	0.537488	0.250019
62	C	0.422113	0.844493	0
63	C	0.432678	0.865636	0.832123
64	C	0.456134	0.912663	0.866185
65	C	0.460064	0.920583	0.055177
66	C	0.480553	0.961679	0.155078
67	C	0.482492	0.96558	0.351102
68	S	0.509282	0.019312	0.425454
69	C	0.519333	0.039452	0.195305
70	C	0.542332	0.085579	0.15052
71	C	0.558661	0.118271	0.281566
72	C	0.579909	0.160903	0.189198
73	C	0.576957	0.155051	0
74	C	0.552853	0.106739	0.953322
75	C	0.50187	0.004422	0.067094
76	C	0.438352	0.87708	0.161813
77	H	0.425222	0.850662	0.692184
78	H	0.468216	0.936859	0.752864
79	H	0.469589	0.939712	0.45768
80	H	0.557044	0.114974	0.435253
81	H	0.595471	0.192076	0.26419
82	H	0.522149	0.097321	0.873325
83	H	0.57413	0.09731	0.873109
84	H	0.504438	0.009563	0.913925
85	H	0.410464	0.873403	0.249887
86	H	0.462544	0.873386	0.250019
87	C	0.156392	0.577182	0
88	C	0.135067	0.566634	0.832123
89	C	0.087633	0.543128	0.866185
90	C	0.079645	0.53915	0.055177
91	C	0.038194	0.518601	0.155078
92	C	0.034259	0.516643	0.351102
93	S	0.980064	0.489777	0.425454
94	C	0.95975	0.479716	0.195305
95	C	0.913224	0.456653	0.15052
96	C	0.88025	0.440335	0.281566
97	C	0.83725	0.419011	0.189198
98	C	0.843153	0.421904	0
99	C	0.891882	0.446044	0.953322
100	C	0.995081	0.497234	0.067094
101	C	0.123523	0.56088	0.161813
102	H	0.15017	0.574132	0.692184
103	H	0.063229	0.531049	0.752864
104	H	0.060351	0.529573	0.45768
105	H	0.883574	0.44201	0.435253
106	H	0.805807	0.403442	0.26419
107	H	0.901577	0.425064	0.873325
108	H	0.901196	0.476416	0.873109
109	H	0.989897	0.494668	0.913925
110	H	0.127428	0.536984	0.249887
111	H	0.127054	0.588441	0.250019
