data_C78H39N9O6S12_2023-05-11_19:59:14
#******************************************
#
# CIF file created by Zeo++
# Zeo++ is an open source package to
# analyze microporous materials
#
#*******************************************

_cell_length_a		46.4094   
_cell_length_b		46.7079   
_cell_length_c		7   
_cell_angle_alpha		90   
_cell_angle_beta		90   
_cell_angle_gamma		119.721   

_symmetry_space_group_name_H-M		'P1'
_symmetry_Int_Tables_number		1
_symmetry_cell_setting		Monoclinic

loop_
_symmetry_equiv_pos_as_xyz
'+x,+y,+z'

loop_
_atom_site_label
_atom_site_type_symbol
_atom_site_fract_x
_atom_site_fract_y
_atom_site_fract_z
1	C	0.366726	0.673643	0.999995
2	O	0.396003	0.678772	0.999991
3	C	0.340279	0.639363	0.999998
4	C	0.345434	0.614095	0
5	N	0.378206	0.620004	0
6	C	0.306421	0.633278	3e-06
7	O	0.282652	0.603732	5e-06
8	C	0.29827	0.659641	6e-06
9	C	0.267113	0.653279	5e-06
10	N	0.241379	0.619663	0
11	C	0.325992	0.693647	4e-06
12	O	0.319513	0.716445	7e-06
13	C	0.360394	0.70126	0.999999
14	C	0.384831	0.732283	0.999998
15	N	0.379899	0.759822	0
16	H	0.325187	0.589498	1e-06
17	H	0.260529	0.672163	8e-06
18	H	0.409563	0.736713	0.999997
19	C	0.633274	0.326357	0.999995
20	O	0.603997	0.321228	0.999991
21	C	0.659721	0.360637	0.999998
22	C	0.654566	0.385905	0
23	N	0.621794	0.379996	0
24	C	0.693579	0.366722	3e-06
25	O	0.717348	0.396268	5e-06
26	C	0.70173	0.340359	6e-06
27	C	0.732887	0.346721	5e-06
28	N	0.758621	0.380337	0
29	C	0.674008	0.306353	4e-06
30	O	0.680487	0.283555	7e-06
31	C	0.639606	0.29874	0.999999
32	C	0.615169	0.267717	0.999998
33	N	0.620101	0.240178	0
34	H	0.674813	0.410502	1e-06
35	H	0.739471	0.327837	8e-06
36	H	0.590437	0.263287	0.999997
37	C	0.398222	0.600282	0
38	C	0.400721	0.59782	0.806211
39	C	0.418162	0.580635	0.761156
40	C	0.42806	0.570882	0.92292
41	C	0.447781	0.551451	0.922678
42	C	0.457243	0.542128	0.758104
43	S	0.478256	0.521423	0.805193
44	C	0.474905	0.524725	0.045928
45	C	0.489285	0.510557	0.197421
46	C	0.487078	0.512732	0.392405
47	N	0.502609	0.497428	0.475491
48	C	0.514876	0.485342	0.337388
49	C	0.532476	0.468001	0.380239
50	C	0.545538	0.45513	0.250761
51	C	0.5616	0.439305	0.340244
52	C	0.578876	0.422283	0.231621
53	C	0.594372	0.407015	0.318979
54	C	0.607758	0.393825	0.183588
55	C	0.601778	0.399718	0
56	S	0.580632	0.420553	0.987835
57	C	0.560235	0.44065	0.536311
58	S	0.539854	0.460731	0.610442
59	C	0.506764	0.493335	0.16268
60	C	0.458084	0.541299	0.089534
61	S	0.416242	0.582527	0.126937
62	H	0.390759	0.607636	0.701364
63	H	0.422964	0.575903	0.616566
64	H	0.453072	0.546237	0.611323
65	H	0.475943	0.523703	0.48007
66	H	0.504888	0.495184	0.617625
67	H	0.543614	0.457026	0.097631
68	H	0.596264	0.405151	0.472092
69	H	0.620912	0.380866	0.220672
70	H	0.570089	0.430941	0.641924
71	H	0.512798	0.487388	0.02432
72	H	0.453359	0.545955	0.234394
73	C	0.399581	0.799266	0
74	C	0.402038	0.80419	0.806211
75	C	0.419187	0.83856	0.761156
76	C	0.42892	0.858065	0.92292
77	C	0.448311	0.896928	0.922678
78	C	0.457614	0.915573	0.758104
79	S	0.478276	0.956982	0.805193
80	C	0.474981	0.950379	0.045928
81	C	0.48912	0.978715	0.197421
82	C	0.486949	0.974366	0.392405
83	N	0.502221	0.004973	0.475491
84	C	0.514282	0.029144	0.337388
85	C	0.531587	0.063827	0.380239
86	C	0.544431	0.089569	0.250761
87	C	0.560224	0.12122	0.340244
88	C	0.57721	0.155263	0.231621
89	C	0.592447	0.1858	0.318979
90	C	0.605609	0.212179	0.183588
91	C	0.599729	0.200394	0
92	S	0.578937	0.158725	0.987835
93	C	0.558882	0.11853	0.536311
94	S	0.538842	0.078367	0.610442
95	C	0.506306	0.013159	0.16268
96	C	0.458441	0.91723	0.089534
97	S	0.417299	0.834776	0.126937
98	H	0.392242	0.784558	0.701364
99	H	0.423909	0.848023	0.616566
100	H	0.453513	0.907354	0.611323
101	H	0.476001	0.952423	0.48007
102	H	0.504461	0.009462	0.617625
103	H	0.542539	0.085777	0.097631
104	H	0.594307	0.189528	0.472092
105	H	0.618542	0.238099	0.220672
106	H	0.568571	0.137949	0.641924
107	H	0.51224	0.025052	0.02432
108	H	0.453795	0.907919	0.234394
109	C	0.201682	0.599941	0
110	C	0.196725	0.597479	0.806211
111	C	0.162135	0.580294	0.761156
112	C	0.142505	0.570542	0.92292
113	C	0.103393	0.55111	0.922678
114	C	0.084627	0.541788	0.758104
115	S	0.042953	0.521083	0.805193
116	C	0.049598	0.524385	0.045928
117	C	0.02108	0.510217	0.197421
118	C	0.025458	0.512392	0.392405
119	N	0.994654	0.497088	0.475491
120	C	0.970327	0.485002	0.337388
121	C	0.935422	0.467661	0.380239
122	C	0.909515	0.45479	0.250761
123	C	0.877661	0.438964	0.340244
124	C	0.843399	0.421943	0.231621
125	C	0.812666	0.406674	0.318979
126	C	0.786117	0.393484	0.183588
127	C	0.797979	0.399377	0
128	S	0.839915	0.420212	0.987835
129	C	0.880368	0.440309	0.536311
130	S	0.920789	0.460391	0.610442
131	C	0.986415	0.492995	0.16268
132	C	0.08296	0.540959	0.089534
133	S	0.165943	0.582186	0.126937
134	H	0.216484	0.607295	0.701364
135	H	0.152611	0.575563	0.616566
136	H	0.0929	0.545898	0.611323
137	H	0.047541	0.523363	0.48007
138	H	0.990136	0.494843	0.617625
139	H	0.913331	0.456686	0.097631
140	H	0.808914	0.40481	0.472092
141	H	0.760031	0.380524	0.220672
142	H	0.860824	0.4306	0.641924
143	H	0.974446	0.487049	0.02432
144	H	0.092331	0.545615	0.234394
