data_C60H24N12O6S9_2023-05-30_13:20:00
#******************************************
#
# CIF file created by Zeo++
# Zeo++ is an open source package to
# analyze microporous materials
#
#*******************************************

_cell_length_a		36.2458   
_cell_length_b		36.5444   
_cell_length_c		7   
_cell_angle_alpha		90   
_cell_angle_beta		90   
_cell_angle_gamma		119.643   

_symmetry_space_group_name_H-M		'P1'
_symmetry_Int_Tables_number		1
_symmetry_cell_setting		Monoclinic

loop_
_symmetry_equiv_pos_as_xyz
'+x,+y,+z'

loop_
_atom_site_label
_atom_site_type_symbol
_atom_site_fract_x
_atom_site_fract_y
_atom_site_fract_z
1	C	0.376076	0.675576	0.999995
2	O	0.413552	0.682127	0.999991
3	C	0.342281	0.631796	0.999998
4	C	0.348932	0.599527	0
5	N	0.390882	0.607073	0
6	C	0.298942	0.624025	3e-06
7	O	0.268566	0.586292	5e-06
8	C	0.288452	0.657695	6e-06
9	C	0.248572	0.64957	5e-06
10	N	0.215689	0.606637	0
11	C	0.323878	0.701125	4e-06
12	O	0.315538	0.73024	7e-06
13	C	0.367912	0.710847	0.999999
14	C	0.399139	0.750467	0.999998
15	N	0.392769	0.785637	0
16	H	0.323057	0.568112	1e-06
17	H	0.240103	0.673686	8e-06
18	H	0.430798	0.756124	0.999997
19	C	0.623924	0.324424	0.999995
20	O	0.586448	0.317873	0.999991
21	C	0.657719	0.368204	0.999998
22	C	0.651068	0.400473	0
23	N	0.609118	0.392927	0
24	C	0.701058	0.375975	3e-06
25	O	0.731434	0.413708	5e-06
26	C	0.711548	0.342305	6e-06
27	C	0.751428	0.35043	5e-06
28	N	0.784311	0.393363	0
29	C	0.676122	0.298875	4e-06
30	O	0.684462	0.26976	7e-06
31	C	0.632088	0.289153	0.999999
32	C	0.600861	0.249533	0.999998
33	N	0.607231	0.214363	0
34	H	0.676943	0.431888	1e-06
35	H	0.759897	0.326314	8e-06
36	H	0.569202	0.243876	0.999997
37	C	0.416551	0.581885	0
38	C	0.452119	0.617156	0.064124
39	S	0.493924	0.608099	0.088832
40	C	0.463867	0.556734	0.016078
41	C	0.483088	0.530069	0.00337
42	C	0.492067	0.517672	0.826958
43	C	0.510536	0.491591	0.811993
44	C	0.521509	0.475229	0.971654
45	C	0.540811	0.448399	0.955466
46	C	0.574328	0.449968	0.057291
47	C	0.583449	0.418115	0
48	C	0.55733	0.392829	0.857648
49	S	0.521228	0.407758	0.792511
50	C	0.512899	0.486561	0.154805
51	N	0.520166	0.474864	0.326741
52	S	0.503764	0.496307	0.4903
53	N	0.48653	0.521605	0.35327
54	C	0.493039	0.514592	0.170971
55	C	0.4229	0.547026	0.970818
56	H	0.45591	0.647713	0.097524
57	H	0.484857	0.528857	0.695293
58	H	0.516796	0.484242	0.668633
59	H	0.59127	0.473012	0.167943
60	H	0.557414	0.366392	0.788762
61	H	0.398887	0.516302	0.920927
62	C	0.41789	0.836013	0
63	C	0.382201	0.836146	0.064124
64	S	0.391	0.886453	0.088832
65	C	0.442819	0.907745	0.016078
66	C	0.46947	0.953215	0.00337
67	C	0.48186	0.974397	0.826958
68	C	0.50793	0.018544	0.811993
69	C	0.52429	0.045634	0.971654
70	C	0.551105	0.091347	0.955466
71	C	0.549289	0.122914	0.057291
72	C	0.581225	0.163553	0
73	C	0.606816	0.162845	0.857648
74	S	0.592076	0.112343	0.792511
75	C	0.512967	0.025874	0.154805
76	N	0.524666	0.044669	0.326741
77	S	0.503241	0.00717	0.4903
78	N	0.477949	0.965021	0.35327
79	C	0.484948	0.978416	0.170971
80	C	0.452865	0.876896	0.970818
81	H	0.351475	0.809555	0.097524
82	H	0.470675	0.956167	0.695293
83	H	0.515268	0.032028	0.668633
84	H	0.526017	0.116779	0.167943
85	H	0.633374	0.189174	0.788762
86	H	0.483904	0.883668	0.920927
87	C	0.164899	0.58145	0
88	C	0.165021	0.546046	0.064124
89	S	0.114417	0.504795	0.088832
90	C	0.092655	0.534868	0.016078
91	C	0.046782	0.516063	0.00337
92	C	0.025414	0.507278	0.826958
93	C	0.980874	0.489212	0.811993
94	C	0.953542	0.478485	0.971654
95	C	0.907424	0.459601	0.955466
96	C	0.875724	0.426466	0.057291
97	C	0.834667	0.41768	0
98	C	0.835195	0.443674	0.857648
99	S	0.886037	0.479247	0.792511
100	C	0.973474	0.486913	0.154805
101	N	0.954509	0.479815	0.326741
102	S	0.992336	0.495871	0.4903
103	N	0.034861	0.512722	0.35327
104	C	0.021354	0.50634	0.170971
105	C	0.123575	0.575425	0.970818
106	H	0.191956	0.54208	0.097524
107	H	0.043808	0.514323	0.695293
108	H	0.967276	0.483078	0.668633
109	H	0.882054	0.409556	0.167943
110	H	0.808553	0.443781	0.788762
111	H	0.116549	0.599377	0.920927
