data_C144H72N6O6S24_2023-05-12_20:40:46
#******************************************
#
# CIF file created by Zeo++
# Zeo++ is an open source package to
# analyze microporous materials
#
#*******************************************

_cell_length_a		74.5304   
_cell_length_b		74.8288   
_cell_length_c		7   
_cell_angle_alpha		90   
_cell_angle_beta		90   
_cell_angle_gamma		119.826   

_symmetry_space_group_name_H-M		'P1'
_symmetry_Int_Tables_number		1
_symmetry_cell_setting		Monoclinic

loop_
_symmetry_equiv_pos_as_xyz
'+x,+y,+z'

loop_
_atom_site_label
_atom_site_type_symbol
_atom_site_fract_x
_atom_site_fract_y
_atom_site_fract_z
1	C	0.354136	0.671026	0.999995
2	O	0.372374	0.674231	0.999991
3	C	0.337622	0.649606	0.999998
4	C	0.340799	0.633817	0
5	N	0.361214	0.637509	0
6	C	0.316531	0.645804	3e-06
7	O	0.301691	0.627342	5e-06
8	C	0.311491	0.662277	6e-06
9	C	0.292081	0.658302	5e-06
10	N	0.276012	0.637296	0
11	C	0.328798	0.683526	4e-06
12	O	0.324794	0.697771	7e-06
13	C	0.35023	0.688282	0.999999
14	C	0.365487	0.707667	0.999998
15	N	0.362453	0.724875	0
16	H	0.328159	0.618447	1e-06
17	H	0.288006	0.670101	8e-06
18	H	0.380894	0.710435	0.999997
19	C	0.645864	0.328974	0.999995
20	O	0.627626	0.325769	0.999991
21	C	0.662378	0.350394	0.999998
22	C	0.659201	0.366183	0
23	N	0.638786	0.362491	0
24	C	0.683469	0.354196	3e-06
25	O	0.698309	0.372658	5e-06
26	C	0.688509	0.337723	6e-06
27	C	0.707919	0.341698	5e-06
28	N	0.723988	0.362704	0
29	C	0.671202	0.316474	4e-06
30	O	0.675206	0.302229	7e-06
31	C	0.64977	0.311718	0.999999
32	C	0.634513	0.292333	0.999998
33	N	0.637547	0.275125	0
34	H	0.671841	0.381553	1e-06
35	H	0.711994	0.329899	8e-06
36	H	0.619106	0.289565	0.999997
37	C	0.626348	0.374814	0
38	C	0.616221	0.362356	0.152226
39	C	0.605794	0.370548	0.261715
40	C	0.608349	0.388926	0.188976
41	C	0.600113	0.401498	0.262755
42	C	0.60039	0.418301	0.177587
43	C	0.590865	0.42706	0.29191
44	C	0.583414	0.416905	0.463705
45	C	0.572924	0.421517	0.613908
46	C	0.567199	0.412713	0.793337
47	C	0.557071	0.421097	0.904412
48	C	0.555053	0.436121	0.808151
49	C	0.545729	0.447744	0.880185
50	C	0.543957	0.451926	0.069502
51	C	0.533987	0.463866	0.092359
52	C	0.528212	0.46857	0.920313
53	C	0.517535	0.480336	0.885189
54	C	0.501743	0.478162	0.008077
55	C	0.491404	0.489198	0.976866
56	C	0.496592	0.50271	0.82148
57	C	0.486236	0.51379	0.786845
58	C	0.491461	0.527296	0.631097
59	C	0.480033	0.538283	0.596685
60	C	0.458937	0.53064	0.60173
61	C	0.453469	0.545984	0.56047
62	C	0.470464	0.565154	0.525772
63	C	0.470711	0.584066	0.476224
64	C	0.48717	0.603982	0.483109
65	C	0.481839	0.618883	0.419572
66	C	0.461362	0.610211	0.364309
67	C	0.451204	0.620999	0.289226
68	C	0.460353	0.641821	0.248889
69	C	0.446177	0.64756	0.172489
70	C	0.426305	0.631087	0.156492
71	C	0.408492	0.631592	0.080661
72	C	0.408747	0.645908	0.953243
73	C	0.388526	0.64215	0.905686
74	C	0.373652	0.625186	0
75	S	0.383447	0.613904	0.142657
76	S	0.425281	0.608942	0.236003
77	S	0.44895	0.583958	0.394648
78	S	0.492905	0.564115	0.546703
79	C	0.507325	0.529578	0.508801
80	C	0.517772	0.518688	0.541528
81	C	0.512553	0.505184	0.697035
82	C	0.522859	0.494045	0.730908
83	S	0.534669	0.457981	0.733913
84	S	0.565769	0.43991	0.58476
85	S	0.588179	0.396752	0.481554
86	S	0.623565	0.395853	0.986612
87	H	0.616132	0.34817	0.185023
88	H	0.596797	0.363081	0.38828
89	H	0.607064	0.424281	0.038528
90	H	0.589683	0.440317	0.247655
91	H	0.570076	0.400725	0.845219
92	H	0.551418	0.416067	0.048137
93	H	0.549771	0.446928	0.187749
94	H	0.531384	0.468905	0.229512
95	H	0.497112	0.46765	0.128831
96	H	0.47916	0.487053	0.074928
97	H	0.47398	0.511924	0.883499
98	H	0.447799	0.514661	0.631249
99	H	0.437626	0.542854	0.556512
100	H	0.502537	0.607948	0.531044
101	H	0.49282	0.635248	0.414456
102	H	0.476614	0.652674	0.270906
103	H	0.450561	0.663175	0.131756
104	H	0.422801	0.658483	0.894087
105	H	0.385331	0.651419	0.807721
106	H	0.511604	0.539685	0.385131
107	H	0.529982	0.520776	0.443286
108	H	0.535302	0.496245	0.635132
109	C	0.62481	0.250266	0
110	C	0.637331	0.25261	0.152226
111	C	0.629158	0.23408	0.261715
112	C	0.61073	0.218307	0.188976
113	C	0.598158	0.19759	0.262755
114	C	0.581316	0.181121	0.177587
115	C	0.57257	0.162923	0.29191
116	C	0.582775	0.165634	0.463705
117	C	0.578189	0.150608	0.613908
118	C	0.587033	0.153689	0.793337
119	C	0.578665	0.135263	0.904412
120	C	0.563615	0.118286	0.808151
121	C	0.551999	0.097434	0.880185
122	C	0.547814	0.091505	0.069502
123	C	0.535882	0.069693	0.092359
124	C	0.531187	0.059264	0.920313
125	C	0.519432	0.036923	0.885189
126	C	0.521667	0.023388	0.008077
127	C	0.510642	0.002111	0.976866
128	C	0.497081	0.993805	0.82148
129	C	0.486013	0.972467	0.786845
130	C	0.472458	0.964204	0.631097
131	C	0.461486	0.941892	0.596685
132	C	0.46922	0.928533	0.60173
133	C	0.453861	0.907806	0.56047
134	C	0.434588	0.905601	0.525772
135	C	0.415633	0.887001	0.476224
136	C	0.395614	0.883519	0.483109
137	C	0.380699	0.86337	0.419572
138	C	0.389462	0.851652	0.364309
139	C	0.378686	0.830802	0.289226
140	C	0.357785	0.819151	0.248889
141	C	0.352083	0.799336	0.172489
142	C	0.368661	0.795992	0.156492
143	C	0.368218	0.777779	0.080661
144	C	0.353869	0.763767	0.953243
145	C	0.357706	0.747406	0.905686
146	C	0.374761	0.749522	0
147	S	0.386034	0.770503	0.142657
148	S	0.390861	0.817043	0.236003
149	S	0.415818	0.865472	0.394648
150	S	0.435551	0.928949	0.546703
151	C	0.470116	0.977703	0.508801
152	C	0.480993	0.998942	0.541528
153	C	0.494546	0.007209	0.697035
154	C	0.505674	0.028556	0.730908
155	S	0.541777	0.076236	0.733913
156	S	0.55978	0.125166	0.58476
157	S	0.602957	0.190454	0.481554
158	S	0.603733	0.226532	0.986612
159	H	0.65155	0.266659	0.185023
160	H	0.636673	0.232575	0.38828
161	H	0.575299	0.181798	0.038528
162	H	0.559288	0.148537	0.247655
163	H	0.599038	0.168495	0.845219
164	H	0.583726	0.134655	0.048137
165	H	0.552802	0.102265	0.187749
166	H	0.53084	0.062083	0.229512
167	H	0.532219	0.02926	0.128831
168	H	0.512835	0.992075	0.074928
169	H	0.487925	0.96214	0.883499
170	H	0.485274	0.933383	0.631249
171	H	0.457053	0.895173	0.556512
172	H	0.391586	0.894847	0.531044
173	H	0.364258	0.857981	0.414456
174	H	0.34685	0.824502	0.270906
175	H	0.336417	0.788135	0.131756
176	H	0.341216	0.76521	0.894087
177	H	0.348428	0.734993	0.807721
178	H	0.459971	0.971885	0.385131
179	H	0.478857	0.009001	0.443286
180	H	0.503425	0.038735	0.635132
181	C	0.74852	0.374601	0
182	C	0.746127	0.384714	0.152226
183	C	0.764727	0.395052	0.261715
184	C	0.780601	0.392448	0.188976
185	C	0.801408	0.400593	0.262755
186	C	0.817973	0.400259	0.177587
187	C	0.836243	0.409698	0.29191
188	C	0.83349	0.417142	0.463705
189	C	0.848566	0.427555	0.613908
190	C	0.845447	0.433279	0.793337
191	C	0.863943	0.44332	0.904412
192	C	0.881011	0.445274	0.808151
193	C	0.901951	0.454503	0.880185
194	C	0.907908	0.45625	0.069502
195	C	0.929811	0.466122	0.092359
196	C	0.940279	0.471847	0.920313
197	C	0.962712	0.482421	0.885189
198	C	0.97627	0.498131	0.008077
199	C	0.997633	0.508371	0.976866
200	C	0.006006	0.503166	0.82148
201	C	0.02743	0.513424	0.786845
202	C	0.03576	0.508181	0.631097
203	C	0.05816	0.519506	0.596685
204	C	0.071522	0.540508	0.60173
205	C	0.092349	0.54589	0.56047
206	C	0.094627	0.528926	0.525772
207	C	0.113335	0.528613	0.476224
208	C	0.116895	0.512179	0.483109
209	C	0.137141	0.517427	0.419572
210	C	0.148856	0.537818	0.364309
211	C	0.169789	0.54788	0.289226
212	C	0.181541	0.538709	0.248889
213	C	0.20142	0.552785	0.172489
214	C	0.204713	0.572601	0.156492
215	C	0.222969	0.59031	0.080661
216	C	0.237063	0.590005	0.953243
217	C	0.253447	0.610124	0.905686
218	C	0.251267	0.624973	0
219	S	0.230198	0.615273	0.142657
220	S	0.183537	0.573696	0.236003
221	S	0.134912	0.550251	0.394648
222	S	0.071223	0.506617	0.546703
223	C	0.022239	0.492401	0.508801
224	C	0.000914	0.482051	0.541528
225	C	0.99258	0.487288	0.697035
226	C	0.971146	0.47708	0.730908
227	S	0.923232	0.465464	0.733913
228	S	0.87413	0.434605	0.58476
229	S	0.808543	0.412475	0.481554
230	S	0.772381	0.377295	0.986612
231	H	0.731997	0.384852	0.185023
232	H	0.766209	0.404024	0.38828
233	H	0.817315	0.393601	0.038528
234	H	0.850708	0.410827	0.247655
235	H	0.830565	0.430461	0.845219
236	H	0.864535	0.448958	0.048137
237	H	0.897106	0.450487	0.187749
238	H	0.937455	0.468692	0.229512
239	H	0.970348	0.502771	0.128831
240	H	0.007684	0.520553	0.074928
241	H	0.037773	0.525616	0.883499
242	H	0.066605	0.551637	0.631249
243	H	0.104999	0.561653	0.556512
244	H	0.105556	0.496886	0.531044
245	H	0.142601	0.506452	0.414456
246	H	0.176215	0.522504	0.270906
247	H	0.212701	0.548371	0.131756
248	H	0.235661	0.575988	0.894087
249	H	0.265921	0.613269	0.807721
250	H	0.028105	0.488111	0.385131
251	H	0.99084	0.469904	0.443286
252	H	0.960952	0.4647	0.635132
