data_C75H51N9O6_2023-05-10_23:25:55
#******************************************
#
# CIF file created by Zeo++
# Zeo++ is an open source package to
# analyze microporous materials
#
#*******************************************

_cell_length_a		39.2714   
_cell_length_b		39.57   
_cell_length_c		7   
_cell_angle_alpha		90   
_cell_angle_beta		90   
_cell_angle_gamma		119.67   

_symmetry_space_group_name_H-M		'P1'
_symmetry_Int_Tables_number		1
_symmetry_cell_setting		Monoclinic

loop_
_symmetry_equiv_pos_as_xyz
'+x,+y,+z'

loop_
_atom_site_label
_atom_site_type_symbol
_atom_site_fract_x
_atom_site_fract_y
_atom_site_fract_z
1	C	0.372787	0.674897	0.999995
2	O	0.40738	0.680949	0.999991
3	C	0.341574	0.634454	0.999998
4	C	0.347696	0.604643	0
5	N	0.386418	0.611614	0
6	C	0.30157	0.627275	3e-06
7	O	0.273515	0.592417	5e-06
8	C	0.291906	0.658378	6e-06
9	C	0.255093	0.650873	5e-06
10	N	0.224722	0.611212	0
11	C	0.324625	0.698498	4e-06
12	O	0.316941	0.725395	7e-06
13	C	0.365271	0.70748	0.999999
14	C	0.394112	0.74408	0.999998
15	N	0.388251	0.77657	0
16	H	0.323799	0.575623	1e-06
17	H	0.247289	0.673151	8e-06
18	H	0.423335	0.749307	0.999997
19	C	0.627213	0.325103	0.999995
20	O	0.59262	0.319051	0.999991
21	C	0.658426	0.365546	0.999998
22	C	0.652304	0.395357	0
23	N	0.613582	0.388386	0
24	C	0.69843	0.372725	3e-06
25	O	0.726485	0.407583	5e-06
26	C	0.708094	0.341622	6e-06
27	C	0.744907	0.349127	5e-06
28	N	0.775278	0.388788	0
29	C	0.675375	0.301502	4e-06
30	O	0.683059	0.274605	7e-06
31	C	0.634729	0.29252	0.999999
32	C	0.605888	0.25592	0.999998
33	N	0.611749	0.22343	0
34	H	0.676201	0.424377	1e-06
35	H	0.752711	0.326849	8e-06
36	H	0.576665	0.250693	0.999997
37	C	0.410097	0.588346	0
38	C	0.390171	0.5602	0.87196
39	C	0.399285	0.527893	0.899973
40	C	0.42784	0.542898	0.064525
41	C	0.443959	0.520525	0.146952
42	C	0.480309	0.536088	0.219622
43	C	0.497863	0.514378	0.306433
44	C	0.48192	0.474122	0.295031
45	N	0.497994	0.453962	0.374271
46	C	0.532218	0.47481	0.469037
47	C	0.548906	0.452836	0.55751
48	C	0.564763	0.433407	0.472427
49	C	0.570674	0.429063	0.272529
50	C	0.588489	0.409878	0.205386
51	C	0.589903	0.411654	0
52	C	0.572999	0.431765	0.937483
53	C	0.558537	0.444811	0.105306
54	C	0.550671	0.514996	0.488939
55	C	0.533269	0.534814	0.405983
56	C	0.433168	0.577725	0.119646
57	H	0.370519	0.560335	0.764612
58	H	0.412751	0.523786	0.77157
59	H	0.372754	0.5007	0.93634
60	H	0.424269	0.489239	0.146034
61	H	0.499189	0.56756	0.217154
62	H	0.454808	0.45575	0.219156
63	H	0.54788	0.452949	0.712904
64	H	0.575283	0.418823	0.568303
65	H	0.600426	0.395316	0.289563
66	H	0.569662	0.437684	0.790273
67	H	0.572675	0.476587	0.108373
68	H	0.526695	0.431872	0.096193
69	H	0.578011	0.530796	0.566983
70	H	0.547596	0.566238	0.421192
71	H	0.451231	0.595284	0.236291
72	C	0.411462	0.823107	0
73	C	0.439861	0.831357	0.87196
74	C	0.472246	0.872465	0.899973
75	C	0.456987	0.885805	0.064525
76	C	0.47935	0.923975	0.146952
77	C	0.463479	0.944472	0.219622
78	C	0.485166	0.983403	0.306433
79	C	0.5257	0.007622	0.295031
80	N	0.54584	0.043549	0.374271
81	C	0.524677	0.056692	0.469037
82	C	0.546634	0.095028	0.55751
83	C	0.566041	0.130015	0.472427
84	C	0.570365	0.140177	0.272529
85	C	0.589514	0.176856	0.205386
86	C	0.587721	0.176492	0
87	C	0.567636	0.139792	0.937483
88	C	0.55463	0.112527	0.105306
89	C	0.484197	0.035026	0.488939
90	C	0.464408	0.998125	0.405983
91	C	0.421976	0.856479	0.119646
92	H	0.439856	0.811783	0.764612
93	H	0.476281	0.889866	0.77157
94	H	0.499731	0.873234	0.93634
95	H	0.5109	0.935577	0.146034
96	H	0.431748	0.931884	0.217154
97	H	0.54433	0.999053	0.219156
98	H	0.546527	0.093901	0.712904
99	H	0.580618	0.154907	0.568303
100	H	0.604059	0.20313	0.289563
101	H	0.561714	0.130612	0.790273
102	H	0.522624	0.094947	0.108373
103	H	0.567835	0.093882	0.096193
104	H	0.468147	0.046374	0.566983
105	H	0.432755	0.981081	0.421192
106	H	0.404222	0.856904	0.236291
107	C	0.177833	0.587944	0
108	C	0.169359	0.60784	0.87196
109	C	0.12786	0.599039	0.899973
110	C	0.114564	0.570693	0.064525
111	C	0.076082	0.554897	0.146952
112	C	0.055603	0.518837	0.219622
113	C	0.016361	0.501616	0.306433
114	C	0.991771	0.517653	0.295031
115	N	0.955557	0.501887	0.374271
116	C	0.942497	0.467895	0.469037
117	C	0.903851	0.451533	0.55751
118	C	0.868586	0.435976	0.472427
119	C	0.858352	0.430158	0.272529
120	C	0.821389	0.412663	0.205386
121	C	0.821766	0.411252	0
122	C	0.858757	0.42784	0.937483
123	C	0.886224	0.442059	0.105306
124	C	0.964523	0.449375	0.488939
125	C	0.001714	0.466458	0.405983
126	C	0.144247	0.565192	0.119646
127	H	0.189017	0.62728	0.764612
128	H	0.110359	0.585746	0.77157
129	H	0.126906	0.625463	0.93634
130	H	0.064222	0.574581	0.146034
131	H	0.068455	0.499953	0.217154
132	H	0.000253	0.544594	0.219156
133	H	0.904984	0.452547	0.712904
134	H	0.843491	0.425667	0.568303
135	H	0.794906	0.400951	0.289563
136	H	0.868015	0.431102	0.790273
137	H	0.904092	0.427864	0.108373
138	H	0.904862	0.473643	0.096193
139	H	0.953233	0.422227	0.566983
140	H	0.01904	0.452078	0.421192
141	H	0.143939	0.547209	0.236291
