data_C90H42N12O6S12_2023-05-11_00:26:34
#******************************************
#
# CIF file created by Zeo++
# Zeo++ is an open source package to
# analyze microporous materials
#
#*******************************************

_cell_length_a		53.8468   
_cell_length_b		54.1452   
_cell_length_c		7   
_cell_angle_alpha		90   
_cell_angle_beta		90   
_cell_angle_gamma		119.759   

_symmetry_space_group_name_H-M		'P1'
_symmetry_Int_Tables_number		1
_symmetry_cell_setting		Monoclinic

loop_
_symmetry_equiv_pos_as_xyz
'+x,+y,+z'

loop_
_atom_site_label
_atom_site_type_symbol
_atom_site_fract_x
_atom_site_fract_y
_atom_site_fract_z
1	C	0.362119	0.672687	0.999995
2	O	0.387356	0.677113	0.999991
3	C	0.339301	0.643104	0.999998
4	C	0.343727	0.621299	0
5	N	0.371977	0.626398	0
6	C	0.310116	0.637853	3e-06
7	O	0.28961	0.612356	5e-06
8	C	0.303109	0.660604	6e-06
9	C	0.276251	0.655114	5e-06
10	N	0.254049	0.626104	0
11	C	0.327024	0.68995	4e-06
12	O	0.321455	0.709624	7e-06
13	C	0.356679	0.69652	0.999999
14	C	0.377762	0.723292	0.999998
15	N	0.37353	0.747057	0
16	H	0.32626	0.600072	1e-06
17	H	0.270589	0.67141	8e-06
18	H	0.399081	0.727114	0.999997
19	C	0.637881	0.327313	0.999995
20	O	0.612644	0.322887	0.999991
21	C	0.660699	0.356896	0.999998
22	C	0.656273	0.378701	0
23	N	0.628023	0.373602	0
24	C	0.689884	0.362147	3e-06
25	O	0.71039	0.387644	5e-06
26	C	0.696891	0.339396	6e-06
27	C	0.723749	0.344886	5e-06
28	N	0.745951	0.373896	0
29	C	0.672976	0.31005	4e-06
30	O	0.678545	0.290376	7e-06
31	C	0.643321	0.30348	0.999999
32	C	0.622238	0.276708	0.999998
33	N	0.62647	0.252943	0
34	H	0.67374	0.399928	1e-06
35	H	0.729411	0.32859	8e-06
36	H	0.600919	0.272886	0.999997
37	C	0.389216	0.609379	0
38	C	0.389648	0.608964	0.804553
39	S	0.406999	0.591839	0.723273
40	C	0.414094	0.58482	0.951653
41	C	0.429841	0.569271	0.981373
42	C	0.435971	0.563207	0.162427
43	C	0.450996	0.548373	0.180401
44	C	0.459892	0.5396	0.018872
45	C	0.475821	0.523873	0.037223
46	C	0.483987	0.515785	0.203018
47	C	0.499084	0.500887	0.164216
48	C	0.502184	0.497858	0.974654
49	C	0.517282	0.48296	0.935806
50	C	0.52545	0.474869	0.101601
51	C	0.541381	0.459139	0.119977
52	C	0.548641	0.451975	0.295213
53	C	0.56372	0.437086	0.302844
54	C	0.571538	0.429364	0.133648
55	C	0.587397	0.413708	0.121849
56	C	0.595869	0.40535	0.958318
57	C	0.610784	0.390621	0
58	C	0.61367	0.387765	0.191871
59	S	0.598126	0.403106	0.322797
60	N	0.564894	0.435921	0.961522
61	C	0.550253	0.450376	0.959176
62	S	0.514605	0.48554	0.302747
63	S	0.48666	0.513205	0.836118
64	C	0.452656	0.546755	0.844313
65	N	0.438101	0.561126	0.822455
66	C	0.403053	0.595712	0.085606
67	H	0.38075	0.617755	0.704947
68	H	0.429404	0.569683	0.290515
69	H	0.455483	0.543936	0.323691
70	H	0.479646	0.520047	0.346545
71	H	0.521599	0.478722	0.792096
72	H	0.542858	0.457689	0.430188
73	H	0.568957	0.431918	0.441341
74	H	0.591305	0.409861	0.815769
75	H	0.624042	0.377522	0.262117
76	H	0.545853	0.454717	0.815383
77	H	0.45834	0.541151	0.708595
78	H	0.404816	0.593962	0.238423
79	C	0.390519	0.781096	0
80	C	0.390933	0.781938	0.804553
81	S	0.408028	0.816193	0.723273
82	C	0.415034	0.830217	0.951653
83	C	0.430555	0.861313	0.981373
84	C	0.436608	0.873429	0.162427
85	C	0.451416	0.903098	0.180401
86	C	0.460173	0.920654	0.018872
87	C	0.475872	0.952108	0.037223
88	C	0.483946	0.968258	0.203018
89	C	0.498817	0.998061	0.164216
90	C	0.501841	0.004152	0.974654
91	C	0.516713	0.033956	0.935806
92	C	0.524788	0.050111	0.101601
93	C	0.540491	0.08157	0.119977
94	C	0.547642	0.095902	0.295213
95	C	0.562504	0.125679	0.302844
96	C	0.570212	0.141119	0.133648
97	C	0.58584	0.172433	0.121849
98	C	0.594184	0.189156	0.958318
99	C	0.608886	0.21861	0
100	C	0.611737	0.224315	0.191871
101	S	0.596423	0.193628	0.322797
102	N	0.563667	0.128002	0.961522
103	C	0.549238	0.099092	0.959176
104	S	0.514137	0.028733	0.302747
105	S	0.486521	0.973478	0.836118
106	C	0.453031	0.906354	0.844313
107	N	0.438686	0.877614	0.822455
108	C	0.404161	0.808424	0.085606
109	H	0.382158	0.764362	0.704947
110	H	0.430144	0.860469	0.290515
111	H	0.455845	0.911964	0.323691
112	H	0.479692	0.959711	0.346545
113	H	0.520943	0.042457	0.792096
114	H	0.541938	0.084478	0.430188
115	H	0.567663	0.136018	0.441341
116	H	0.58968	0.180138	0.815769
117	H	0.621962	0.244799	0.262117
118	H	0.544905	0.090408	0.815383
119	H	0.458625	0.917571	0.708595
120	H	0.405909	0.811915	0.238423
121	C	0.219821	0.609084	0
122	C	0.218975	0.608658	0.804553
123	S	0.184529	0.591526	0.723273
124	C	0.170428	0.584522	0.951653
125	C	0.13916	0.568975	0.981373
126	C	0.126977	0.562922	0.162427
127	C	0.097144	0.548088	0.180401
128	C	0.079491	0.539305	0.018872
129	C	0.047862	0.523578	0.037223
130	C	0.031623	0.515516	0.203018
131	C	0.001655	0.500611	0.164216
132	C	0.995531	0.49755	0.974654
133	C	0.965561	0.482643	0.935806
134	C	0.949317	0.474579	0.101601
135	C	0.917684	0.45885	0.119977
136	C	0.903273	0.451682	0.295213
137	C	0.873332	0.436794	0.302844
138	C	0.857806	0.429076	0.133648
139	C	0.826319	0.413418	0.121849
140	C	0.809503	0.405054	0.958318
141	C	0.779886	0.390327	0
142	C	0.774149	0.387479	0.191871
143	S	0.805007	0.402825	0.322797
144	N	0.870995	0.435636	0.961522
145	C	0.900065	0.450091	0.959176
146	S	0.970813	0.485286	0.302747
147	S	0.026375	0.512876	0.836118
148	C	0.09387	0.546449	0.844313
149	N	0.122769	0.560819	0.822455
150	C	0.192341	0.595423	0.085606
151	H	0.236648	0.617442	0.704947
152	H	0.140009	0.569406	0.290515
153	H	0.088228	0.543658	0.323691
154	H	0.040217	0.519801	0.346545
155	H	0.957014	0.478381	0.792096
156	H	0.91476	0.457392	0.430188
157	H	0.862935	0.431624	0.441341
158	H	0.818571	0.409559	0.815769
159	H	0.753552	0.377238	0.262117
160	H	0.908798	0.454435	0.815383
161	H	0.082591	0.540837	0.708595
162	H	0.188831	0.593682	0.238423
