data_C114H54N6O6S12_2023-05-28_18:00:37
#******************************************
#
# CIF file created by Zeo++
# Zeo++ is an open source package to
# analyze microporous materials
#
#*******************************************

_cell_length_a		56.4193   
_cell_length_b		56.7177   
_cell_length_c		7   
_cell_angle_alpha		90   
_cell_angle_beta		90   
_cell_angle_gamma		119.77   

_symmetry_space_group_name_H-M		'P1'
_symmetry_Int_Tables_number		1
_symmetry_cell_setting		Monoclinic

loop_
_symmetry_equiv_pos_as_xyz
'+x,+y,+z'

loop_
_atom_site_label
_atom_site_type_symbol
_atom_site_fract_x
_atom_site_fract_y
_atom_site_fract_z
1	C	0.360808	0.672414	0.999995
2	O	0.384895	0.676641	0.999991
3	C	0.339024	0.64417	0.999998
4	C	0.343244	0.623352	0
5	N	0.370207	0.62822	0
6	C	0.311169	0.639157	3e-06
7	O	0.291592	0.614814	5e-06
8	C	0.304486	0.660878	6e-06
9	C	0.278851	0.655637	5e-06
10	N	0.257655	0.62794	0
11	C	0.327316	0.688897	4e-06
12	O	0.322006	0.70768	7e-06
13	C	0.355621	0.695169	0.999999
14	C	0.375748	0.720729	0.999998
15	N	0.371714	0.743419	0
16	H	0.326569	0.603086	1e-06
17	H	0.273451	0.671195	8e-06
18	H	0.396096	0.724379	0.999997
19	C	0.639192	0.327586	0.999995
20	O	0.615105	0.323359	0.999991
21	C	0.660976	0.35583	0.999998
22	C	0.656756	0.376648	0
23	N	0.629793	0.37178	0
24	C	0.688831	0.360843	3e-06
25	O	0.708408	0.385186	5e-06
26	C	0.695514	0.339122	6e-06
27	C	0.721149	0.344363	5e-06
28	N	0.742345	0.37206	0
29	C	0.672684	0.311103	4e-06
30	O	0.677994	0.29232	7e-06
31	C	0.644379	0.304831	0.999999
32	C	0.624252	0.279271	0.999998
33	N	0.628286	0.256581	0
34	H	0.673431	0.396914	1e-06
35	H	0.726549	0.328805	8e-06
36	H	0.603904	0.275621	0.999997
37	C	0.613345	0.388029	0
38	C	0.600945	0.400291	0.90661
39	C	0.589706	0.411377	0.038328
40	C	0.574022	0.426879	0.9816
41	C	0.569295	0.431575	0.79661
42	C	0.554628	0.446069	0.788055
43	C	0.548369	0.452228	0.966306
44	C	0.533486	0.466929	0.014602
45	C	0.523566	0.476729	0.868437
46	C	0.509371	0.490752	0.907285
47	C	0.499593	0.500414	0.760175
48	C	0.485537	0.514301	0.801376
49	C	0.480862	0.518917	0.990807
50	C	0.466741	0.532868	0.034732
51	C	0.461914	0.537634	0.224091
52	C	0.447033	0.552337	0.272382
53	C	0.440791	0.558515	0.450631
54	C	0.42612	0.573007	0.442122
55	C	0.421375	0.577683	0.257121
56	C	0.405739	0.593128	0.197781
57	C	0.395097	0.603649	0.328246
58	S	0.379301	0.61925	0.219162
59	C	0.386655	0.611971	0
60	C	0.400755	0.59804	0.005576
61	S	0.434558	0.564648	0.097305
62	C	0.471831	0.527832	0.370256
63	C	0.486027	0.513808	0.331408
64	C	0.495804	0.504147	0.478518
65	C	0.509862	0.490261	0.437316
66	C	0.514537	0.485645	0.247885
67	C	0.528659	0.471696	0.203961
68	C	0.504832	0.495234	0.098444
69	C	0.490565	0.509328	0.140248
70	S	0.560825	0.439896	0.141379
71	C	0.59421	0.406905	0.225375
72	S	0.611805	0.38952	0.240909
73	H	0.599994	0.401249	0.752617
74	H	0.575836	0.425129	0.671466
75	H	0.549063	0.451586	0.654236
76	H	0.526775	0.47356	0.719694
77	H	0.502827	0.497221	0.611391
78	H	0.478245	0.521506	0.683498
79	H	0.45952	0.540005	0.916138
80	H	0.446372	0.553011	0.584444
81	H	0.419604	0.579453	0.567389
82	H	0.395621	0.603141	0.482428
83	H	0.407162	0.591703	0.879136
84	H	0.468622	0.531001	0.518998
85	H	0.49257	0.50734	0.627301
86	H	0.517153	0.483056	0.555194
87	H	0.535882	0.46456	0.322555
88	H	0.588163	0.412863	0.35504
89	C	0.611496	0.223802	0
90	C	0.599255	0.19929	0.90661
91	C	0.588188	0.177101	0.038328
92	C	0.572712	0.146106	0.9816
93	C	0.568024	0.13674	0.79661
94	C	0.553556	0.107757	0.788055
95	C	0.547406	0.095415	0.966306
96	C	0.532731	0.06601	0.014602
97	C	0.522948	0.046412	0.868437
98	C	0.508948	0.018364	0.907285
99	C	0.499303	0.999044	0.760175
100	C	0.48544	0.971271	0.801376
101	C	0.480831	0.962036	0.990807
102	C	0.466905	0.934137	0.034732
103	C	0.462147	0.924602	0.224091
104	C	0.447468	0.895197	0.272382
105	C	0.441301	0.882854	0.450631
106	C	0.426833	0.853868	0.442122
107	C	0.422166	0.844505	0.257121
108	C	0.406747	0.813613	0.197781
109	C	0.396244	0.79258	0.328246
110	S	0.38067	0.761374	0.219162
111	C	0.387936	0.775918	0
112	C	0.401843	0.803777	0.005576
113	S	0.435179	0.870563	0.097305
114	C	0.471931	0.9442	0.370256
115	C	0.485931	0.972247	0.331408
116	C	0.495576	0.991568	0.478518
117	C	0.509439	0.019341	0.437316
118	C	0.514047	0.028576	0.247885
119	C	0.527972	0.056476	0.203961
120	C	0.504474	0.0094	0.098444
121	C	0.490404	0.981212	0.140248
122	S	0.559717	0.120051	0.141379
123	C	0.592653	0.186023	0.225375
124	S	0.610008	0.22079	0.240909
125	H	0.598299	0.197393	0.752617
126	H	0.57446	0.149648	0.671466
127	H	0.548047	0.096742	0.654236
128	H	0.526111	0.052751	0.719694
129	H	0.50249	0.005432	0.611391
130	H	0.478247	0.956863	0.683498
131	H	0.45978	0.919866	0.916138
132	H	0.446795	0.89387	0.584444
133	H	0.420398	0.840985	0.567389
134	H	0.396751	0.793605	0.482428
135	H	0.408169	0.816443	0.879136
136	H	0.468768	0.937861	0.518998
137	H	0.492389	0.98518	0.627301
138	H	0.516631	0.033749	0.555194
139	H	0.535095	0.070746	0.322555
140	H	0.586704	0.174091	0.35504
141	C	0.774735	0.387748	0
142	C	0.799376	0.399998	0.90661
143	C	0.821682	0.4111	0.038328
144	C	0.852842	0.426594	0.9816
145	C	0.862257	0.431264	0.79661
146	C	0.891393	0.445753	0.788055
147	C	0.9038	0.451936	0.966306
148	C	0.93336	0.466639	0.014602
149	C	0.953062	0.476438	0.868437
150	C	0.981257	0.490462	0.907285
151	C	0.00068	0.500121	0.760175
152	C	0.0286	0.514007	0.801376
153	C	0.037883	0.518626	0.990807
154	C	0.06593	0.532575	0.034732
155	C	0.075516	0.537344	0.224091
156	C	0.105075	0.552045	0.272382
157	C	0.117484	0.55821	0.450631
158	C	0.146623	0.572704	0.442122
159	C	0.156035	0.577391	0.257121
160	C	0.18709	0.592838	0.197781
161	C	0.208235	0.60335	0.328246
162	S	0.239605	0.618955	0.219162
163	C	0.224985	0.61169	0
164	C	0.196978	0.597761	0.005576
165	S	0.12984	0.564368	0.097305
166	C	0.055813	0.527546	0.370256
167	C	0.027618	0.513523	0.331408
168	C	0.008195	0.503864	0.478518
169	C	0.980275	0.489977	0.437316
170	C	0.970992	0.485358	0.247885
171	C	0.942945	0.471408	0.203961
172	C	0.990269	0.494945	0.098444
173	C	0.018606	0.509039	0.140248
174	S	0.879034	0.439632	0.141379
175	C	0.812713	0.406651	0.225375
176	S	0.777763	0.389269	0.240909
177	H	0.801283	0.400937	0.752617
178	H	0.849281	0.424802	0.671466
179	H	0.902466	0.45125	0.654236
180	H	0.946689	0.473268	0.719694
181	H	0.994258	0.496926	0.611391
182	H	0.043084	0.52121	0.683498
183	H	0.080276	0.539708	0.916138
184	H	0.106409	0.552697	0.584444
185	H	0.159574	0.579141	0.567389
186	H	0.207204	0.602833	0.482428
187	H	0.184245	0.591432	0.879136
188	H	0.062186	0.530717	0.518998
189	H	0.014617	0.507059	0.627301
190	H	0.965792	0.482774	0.555194
191	H	0.928599	0.464272	0.322555
192	H	0.824708	0.412624	0.35504
