data_C108H54N6O6S18_2023-05-15_16:54:51
#******************************************
#
# CIF file created by Zeo++
# Zeo++ is an open source package to
# analyze microporous materials
#
#*******************************************

_cell_length_a		58.6138   
_cell_length_b		58.9123   
_cell_length_c		7   
_cell_angle_alpha		90   
_cell_angle_beta		90   
_cell_angle_gamma		119.779   

_symmetry_space_group_name_H-M		'P1'
_symmetry_Int_Tables_number		1
_symmetry_cell_setting		Monoclinic

loop_
_symmetry_equiv_pos_as_xyz
'+x,+y,+z'

loop_
_atom_site_label
_atom_site_type_symbol
_atom_site_fract_x
_atom_site_fract_y
_atom_site_fract_z
1	C	0.35978	0.672201	0.999995
2	O	0.382966	0.67627	0.999991
3	C	0.338808	0.645007	0.999998
4	C	0.342866	0.624962	0
5	N	0.36882	0.629649	0
6	C	0.311994	0.64018	3e-06
7	O	0.293146	0.616741	5e-06
8	C	0.305565	0.661094	6e-06
9	C	0.280889	0.656047	5e-06
10	N	0.260482	0.629379	0
11	C	0.327545	0.68807	4e-06
12	O	0.322437	0.706156	7e-06
13	C	0.354792	0.694109	0.999999
14	C	0.374169	0.71872	0.999998
15	N	0.37029	0.740566	0
16	H	0.326812	0.605449	1e-06
17	H	0.275693	0.671027	8e-06
18	H	0.393756	0.722234	0.999997
19	C	0.64022	0.327799	0.999995
20	O	0.617034	0.32373	0.999991
21	C	0.661192	0.354993	0.999998
22	C	0.657134	0.375038	0
23	N	0.63118	0.370351	0
24	C	0.688006	0.35982	3e-06
25	O	0.706854	0.383259	5e-06
26	C	0.694435	0.338906	6e-06
27	C	0.719111	0.343953	5e-06
28	N	0.739518	0.370621	0
29	C	0.672455	0.31193	4e-06
30	O	0.677563	0.293844	7e-06
31	C	0.645208	0.305891	0.999999
32	C	0.625831	0.28128	0.999998
33	N	0.62971	0.259434	0
34	H	0.673188	0.394551	1e-06
35	H	0.724307	0.328973	8e-06
36	H	0.606244	0.277766	0.999997
37	C	0.38465	0.614004	0
38	C	0.384821	0.615693	0.195096
39	C	0.397553	0.60281	0.279026
40	C	0.406608	0.591773	0.145036
41	C	0.420336	0.577337	0.178258
42	C	0.428157	0.565206	0.045398
43	C	0.441274	0.552735	0.129394
44	C	0.443389	0.555429	0.325829
45	C	0.455384	0.545378	0.457308
46	C	0.457277	0.547851	0.65415
47	C	0.470368	0.53537	0.738116
48	C	0.478479	0.523675	0.604182
49	C	0.492141	0.508781	0.635025
50	C	0.513833	0.513113	0.524078
51	C	0.526735	0.498844	0.556588
52	C	0.518275	0.479879	0.700829
53	C	0.53167	0.464858	0.738163
54	C	0.538597	0.458851	0.911624
55	C	0.55112	0.443512	0.891391
56	C	0.553528	0.437963	0.702868
57	C	0.565101	0.422732	0.634449
58	C	0.568713	0.404801	0.738327
59	C	0.580905	0.393222	0.629917
60	C	0.586507	0.402448	0.444417
61	C	0.598998	0.39483	0.29895
62	C	0.613692	0.382557	0.328434
63	C	0.623224	0.377466	0.155145
64	C	0.61535	0.385996	0
65	S	0.59698	0.39979	0.058382
66	S	0.576876	0.425231	0.406565
67	S	0.540185	0.451427	0.553657
68	C	0.496704	0.475701	0.812745
69	C	0.483808	0.489971	0.780299
70	S	0.469774	0.52778	0.378723
71	S	0.429255	0.573245	0.403735
72	S	0.399299	0.597446	0.917391
73	H	0.376407	0.625501	0.274962
74	H	0.399818	0.601805	0.431898
75	H	0.42474	0.565036	0.893172
76	H	0.448716	0.542259	0.046676
77	H	0.449635	0.558137	0.736935
78	H	0.47379	0.535207	0.890087
79	H	0.521159	0.527821	0.411788
80	H	0.543645	0.502958	0.468367
81	H	0.535074	0.465335	0.047661
82	H	0.55817	0.437084	0.011191
83	H	0.562737	0.399872	0.885906
84	H	0.585119	0.37861	0.68701
85	H	0.617701	0.377498	0.468387
86	H	0.635116	0.368128	0.147038
87	H	0.489466	0.461026	0.925242
88	H	0.466939	0.485972	0.868546
89	C	0.38591	0.771857	0
90	C	0.384215	0.770345	0.195096
91	C	0.397078	0.795811	0.279026
92	C	0.408107	0.815788	0.145036
93	C	0.422523	0.843787	0.178258
94	C	0.434653	0.863628	0.045398
95	C	0.447102	0.889066	0.129394
96	C	0.444391	0.888483	0.325829
97	C	0.454417	0.910397	0.457308
98	C	0.451929	0.909815	0.65415
99	C	0.464387	0.935236	0.738116
100	C	0.47608	0.95493	0.604182
101	C	0.490956	0.983322	0.635025
102	C	0.486515	0.000543	0.524078
103	C	0.500767	0.027557	0.556588
104	C	0.519824	0.038038	0.700829
105	C	0.534828	0.06629	0.738163
106	C	0.540822	0.079148	0.911624
107	C	0.556149	0.10685	0.891391
108	C	0.561703	0.114764	0.702868
109	C	0.576927	0.141417	0.634449
110	C	0.594893	0.162853	0.738327
111	C	0.60645	0.186485	0.629917
112	C	0.597173	0.182861	0.444417
113	C	0.604757	0.202845	0.29895
114	C	0.617	0.229651	0.328434
115	C	0.622063	0.244181	0.155145
116	C	0.613544	0.227873	0
117	S	0.599792	0.195904	0.058382
118	S	0.574368	0.150618	0.406565
119	S	0.54826	0.088115	0.553657
120	C	0.52411	0.020784	0.812745
121	C	0.509857	0.993776	0.780299
122	S	0.472002	0.942202	0.378723
123	S	0.426587	0.856716	0.403735
124	S	0.40245	0.802884	0.917391
125	H	0.374417	0.752228	0.274962
126	H	0.398076	0.799059	0.431898
127	H	0.43484	0.860406	0.893172
128	H	0.457575	0.906883	0.046676
129	H	0.441647	0.891987	0.736935
130	H	0.464536	0.938795	0.890087
131	H	0.471732	0.993173	0.411788
132	H	0.496566	0.040248	0.468367
133	H	0.534335	0.069194	0.047661
134	H	0.562564	0.120248	0.011191
135	H	0.599863	0.161828	0.885906
136	H	0.621086	0.205215	0.68701
137	H	0.622055	0.238666	0.468387
138	H	0.631375	0.265283	0.147038
139	H	0.538859	0.028207	0.925242
140	H	0.513942	0.98101	0.868546
141	C	0.229032	0.613734	0
142	C	0.230556	0.613556	0.195096
143	C	0.20496	0.600974	0.279026
144	C	0.184877	0.592034	0.145036
145	C	0.156733	0.57847	0.178258
146	C	0.136782	0.57076	0.045398
147	C	0.111216	0.557794	0.129394
148	C	0.111812	0.555682	0.325829
149	C	0.08979	0.543819	0.457308
150	C	0.090386	0.541929	0.65415
151	C	0.064837	0.528989	0.738116
152	C	0.045033	0.520989	0.604182
153	C	0.016494	0.507492	0.635025
154	C	0.999244	0.485939	0.524078
155	C	0.972089	0.473194	0.556588
156	C	0.961493	0.481677	0.700829
157	C	0.933093	0.468446	0.738163
158	C	0.920172	0.461596	0.911624
159	C	0.892323	0.449232	0.891391
160	C	0.884361	0.446867	0.702868
161	C	0.857564	0.435445	0.634449
162	C	0.835987	0.43194	0.738327
163	C	0.812236	0.419888	0.629917
164	C	0.815912	0.414286	0.444417
165	C	0.795837	0.401919	0.29895
166	C	0.7689	0.387387	0.328434
167	C	0.754306	0.377947	0.155145
168	C	0.770698	0.385726	0
169	S	0.80282	0.403901	0.058382
170	S	0.848348	0.423745	0.406565
171	S	0.911146	0.460052	0.553657
172	C	0.978778	0.50311	0.812745
173	C	0.005926	0.515848	0.780299
174	S	0.057816	0.529612	0.378723
175	S	0.143749	0.569634	0.403735
176	S	0.197843	0.599265	0.917391
177	H	0.248769	0.621866	0.274962
178	H	0.201698	0.59873	0.431898
179	H	0.140012	0.574153	0.893172
180	H	0.0933	0.550452	0.046676
181	H	0.10831	0.54947	0.736935
182	H	0.061266	0.525593	0.890087
183	H	0.006701	0.478601	0.411788
184	H	0.959381	0.456389	0.468367
185	H	0.930183	0.465065	0.047661
186	H	0.878858	0.442262	0.011191
187	H	0.836993	0.437895	0.885906
188	H	0.793388	0.41577	0.68701
189	H	0.759836	0.38343	0.468387
190	H	0.733101	0.366183	0.147038
191	H	0.971267	0.510361	0.925242
192	H	0.018711	0.532613	0.868546
