data_C96H48N6O6S12_2023-05-21_16:10:04
#******************************************
#
# CIF file created by Zeo++
# Zeo++ is an open source package to
# analyze microporous materials
#
#*******************************************

_cell_length_a		46.7492   
_cell_length_b		47.0477   
_cell_length_c		7   
_cell_angle_alpha		90   
_cell_angle_beta		90   
_cell_angle_gamma		119.723   

_symmetry_space_group_name_H-M		'P1'
_symmetry_Int_Tables_number		1
_symmetry_cell_setting		Monoclinic

loop_
_symmetry_equiv_pos_as_xyz
'+x,+y,+z'

loop_
_atom_site_label
_atom_site_type_symbol
_atom_site_fract_x
_atom_site_fract_y
_atom_site_fract_z
1	C	0.366484	0.673592	0.999995
2	O	0.395548	0.678685	0.999991
3	C	0.340227	0.639559	0.999998
4	C	0.345344	0.614474	0
5	N	0.377878	0.62034	0
6	C	0.306615	0.633519	3e-06
7	O	0.283017	0.604186	5e-06
8	C	0.298525	0.659692	6e-06
9	C	0.267594	0.653376	5e-06
10	N	0.242046	0.620002	0
11	C	0.326046	0.693453	4e-06
12	O	0.319616	0.716087	7e-06
13	C	0.360199	0.701011	0.999999
14	C	0.384459	0.73181	0.999998
15	N	0.379565	0.759151	0
16	H	0.325243	0.590053	1e-06
17	H	0.261059	0.672123	8e-06
18	H	0.409012	0.736208	0.999997
19	C	0.633516	0.326408	0.999995
20	O	0.604452	0.321315	0.999991
21	C	0.659773	0.360441	0.999998
22	C	0.654656	0.385526	0
23	N	0.622122	0.37966	0
24	C	0.693385	0.366481	3e-06
25	O	0.716983	0.395814	5e-06
26	C	0.701475	0.340308	6e-06
27	C	0.732406	0.346624	5e-06
28	N	0.757954	0.379998	0
29	C	0.673954	0.306547	4e-06
30	O	0.680384	0.283913	7e-06
31	C	0.639801	0.298989	0.999999
32	C	0.615541	0.26819	0.999998
33	N	0.620435	0.240849	0
34	H	0.674757	0.409947	1e-06
35	H	0.738941	0.327877	8e-06
36	H	0.590988	0.263792	0.999997
37	C	0.397748	0.60076	0
38	C	0.406823	0.583193	0.883116
39	C	0.429376	0.575675	0.977451
40	C	0.436335	0.587895	0.161349
41	C	0.460331	0.583607	0.301397
42	C	0.466924	0.596023	0.484495
43	S	0.493901	0.587406	0.60134
44	C	0.496941	0.566803	0.408015
45	C	0.51821	0.552113	0.41778
46	C	0.551904	0.572597	0.38165
47	C	0.573325	0.560203	0.385514
48	C	0.561218	0.527157	0.424758
49	C	0.52743	0.505459	0.461428
50	C	0.514729	0.471598	0.501604
51	C	0.535777	0.45662	0.503605
52	C	0.546506	0.445736	0.351136
53	C	0.566834	0.432552	0.409371
54	C	0.583088	0.418239	0.270438
55	C	0.602727	0.405492	0.327502
56	C	0.613928	0.394385	0.169414
57	C	0.602252	0.39924	0
58	S	0.578379	0.416686	0.02742
59	C	0.570708	0.433793	0.604924
60	S	0.550057	0.450673	0.716417
61	C	0.48103	0.451115	0.537647
62	C	0.459658	0.463573	0.535538
63	C	0.471771	0.496625	0.496454
64	C	0.505517	0.518264	0.458274
65	C	0.477829	0.566742	0.257341
66	S	0.415644	0.608256	0.218197
67	H	0.398014	0.575998	0.73835
68	H	0.439733	0.561974	0.911599
69	H	0.457414	0.609841	0.557595
70	H	0.561515	0.598418	0.350464
71	H	0.599433	0.576163	0.358247
72	H	0.578847	0.518408	0.427189
73	H	0.539953	0.447356	0.204678
74	H	0.609015	0.403997	0.474577
75	H	0.629583	0.383545	0.181403
76	H	0.584559	0.425713	0.690539
77	H	0.47139	0.425257	0.567824
78	H	0.433598	0.447671	0.564453
79	H	0.45423	0.505486	0.497111
80	H	0.476647	0.554948	0.122441
81	C	0.399105	0.798311	0
82	C	0.416684	0.824772	0.883116
83	C	0.424104	0.854596	0.977451
84	C	0.411801	0.84934	0.161349
85	C	0.41597	0.877382	0.301397
86	C	0.403474	0.871568	0.484495
87	S	0.411971	0.906869	0.60134
88	C	0.432631	0.930369	0.408015
89	C	0.447255	0.966052	0.41778
90	C	0.426511	0.979071	0.38165
91	C	0.438829	0.012621	0.385514
92	C	0.472062	0.033487	0.424758
93	C	0.494025	0.021582	0.461428
94	C	0.528079	0.04267	0.501604
95	C	0.542994	0.078421	0.503605
96	C	0.553857	0.099875	0.351136
97	C	0.566975	0.133129	0.409371
98	C	0.58125	0.163469	0.270438
99	C	0.593933	0.195605	0.327502
100	C	0.605017	0.217749	0.169414
101	C	0.60021	0.201351	0
102	S	0.582834	0.160347	0.02742
103	C	0.565709	0.135734	0.604924
104	S	0.548882	0.098484	0.716417
105	C	0.548823	0.029646	0.537647
106	C	0.53644	0.99608	0.535538
107	C	0.503201	0.975215	0.496454
108	C	0.481297	0.987136	0.458274
109	C	0.432799	0.911492	0.257341
110	S	0.391482	0.80859	0.218197
111	H	0.423954	0.823198	0.73835
112	H	0.437796	0.878484	0.911599
113	H	0.389659	0.848404	0.557595
114	H	0.400543	0.962916	0.350464
115	H	0.422666	0.02262	0.358247
116	H	0.480744	0.059654	0.427189
117	H	0.552268	0.091772	0.204678
118	H	0.595398	0.203322	0.474577
119	H	0.615809	0.244041	0.181403
120	H	0.57374	0.157493	0.690539
121	H	0.574828	0.045808	0.567824
122	H	0.552544	0.986071	0.564453
123	H	0.494406	0.949022	0.497111
124	H	0.444642	0.922048	0.122441
125	C	0.202636	0.600422	0
126	C	0.175982	0.591528	0.883116
127	C	0.146009	0.569222	0.977451
128	C	0.151353	0.562258	0.161349
129	C	0.123187	0.538504	0.301397
130	C	0.129091	0.531901	0.484495
131	S	0.093616	0.505218	0.60134
132	C	0.069917	0.502321	0.408015
133	C	0.034023	0.481327	0.41778
134	C	0.021074	0.447826	0.38165
135	C	0.987334	0.426668	0.385514
136	C	0.966208	0.438849	0.424758
137	C	0.978033	0.472451	0.461428
138	C	0.95668	0.485225	0.501604
139	C	0.920718	0.464452	0.503605
140	C	0.899126	0.453881	0.351136
141	C	0.865679	0.433811	0.409371
142	C	0.835151	0.417785	0.270438
143	C	0.802829	0.398396	0.327502
144	C	0.780543	0.387359	0.169414
145	C	0.797027	0.398902	0
146	S	0.838275	0.42246	0.02742
147	C	0.863072	0.429966	0.604924
148	S	0.900549	0.450335	0.716417
149	C	0.969635	0.518731	0.537647
150	C	0.003391	0.539839	0.535538
151	C	0.024516	0.527653	0.496454
152	C	0.012674	0.494093	0.458274
153	C	0.08886	0.521259	0.257341
154	S	0.192362	0.582647	0.218197
155	H	0.177521	0.600296	0.73835
156	H	0.121959	0.559035	0.911599
157	H	0.152415	0.541248	0.557595
158	H	0.037431	0.438158	0.350464
159	H	0.97739	0.40071	0.358247
160	H	0.939898	0.42143	0.427189
161	H	0.907267	0.460365	0.204678
162	H	0.795076	0.392174	0.474577
163	H	0.754096	0.371907	0.181403
164	H	0.84119	0.416286	0.690539
165	H	0.953271	0.528428	0.567824
166	H	0.013346	0.56575	0.564453
167	H	0.050852	0.544984	0.497111
168	H	0.0782	0.522496	0.122441
