data_C54H24N18O6S3_2023-05-11_00:14:43
#******************************************
#
# CIF file created by Zeo++
# Zeo++ is an open source package to
# analyze microporous materials
#
#*******************************************

_cell_length_a		35.7769   
_cell_length_b		36.0755   
_cell_length_c		7   
_cell_angle_alpha		90   
_cell_angle_beta		90   
_cell_angle_gamma		119.638   

_symmetry_space_group_name_H-M		'P1'
_symmetry_Int_Tables_number		1
_symmetry_cell_setting		Monoclinic

loop_
_symmetry_equiv_pos_as_xyz
'+x,+y,+z'

loop_
_atom_site_label
_atom_site_type_symbol
_atom_site_fract_x
_atom_site_fract_y
_atom_site_fract_z
1	C	0.376635	0.675691	0.999995
2	O	0.414602	0.682327	0.999991
3	C	0.342402	0.631345	0.999998
4	C	0.349143	0.598657	0
5	N	0.391642	0.606301	0
6	C	0.298495	0.623473	3e-06
7	O	0.267725	0.585251	5e-06
8	C	0.287865	0.657578	6e-06
9	C	0.247462	0.649348	5e-06
10	N	0.214153	0.60586	0
11	C	0.323751	0.701571	4e-06
12	O	0.315298	0.731064	7e-06
13	C	0.368361	0.711419	0.999999
14	C	0.399993	0.751552	0.999998
15	N	0.393537	0.787178	0
16	H	0.322932	0.566836	1e-06
17	H	0.23888	0.673777	8e-06
18	H	0.432067	0.757283	0.999997
19	C	0.623365	0.324309	0.999995
20	O	0.585398	0.317673	0.999991
21	C	0.657598	0.368655	0.999998
22	C	0.650857	0.401343	0
23	N	0.608358	0.393699	0
24	C	0.701505	0.376527	3e-06
25	O	0.732275	0.414749	5e-06
26	C	0.712135	0.342422	6e-06
27	C	0.752538	0.350652	5e-06
28	N	0.785847	0.39414	0
29	C	0.676249	0.298429	4e-06
30	O	0.684702	0.268936	7e-06
31	C	0.631639	0.288581	0.999999
32	C	0.600007	0.248448	0.999998
33	N	0.606463	0.212822	0
34	H	0.677068	0.433164	1e-06
35	H	0.76112	0.326223	8e-06
36	H	0.567933	0.242717	0.999997
37	C	0.41765	0.580787	0
38	C	0.435961	0.562828	0.884593
39	N	0.456493	0.542686	0.955846
40	C	0.458278	0.54093	0.14922
41	C	0.480505	0.519127	0.223933
42	C	0.485641	0.514088	0.415924
43	S	0.513039	0.48721	0.457034
44	C	0.519081	0.481279	0.217868
45	C	0.541614	0.459175	0.147441
46	N	0.543532	0.457296	0.953981
47	C	0.56411	0.437108	0.883757
48	C	0.58235	0.419213	0
49	N	0.580726	0.420807	0.192382
50	C	0.560105	0.441035	0.262584
51	C	0.500072	0.499929	0.111586
52	C	0.439732	0.559117	0.263567
53	N	0.41916	0.579299	0.192509
54	H	0.434812	0.563959	0.730002
55	H	0.474939	0.524586	0.53837
56	H	0.565361	0.435883	0.729226
57	H	0.559207	0.441916	0.417291
58	H	0.500127	0.499876	0.956472
59	H	0.440511	0.558349	0.418205
60	C	0.418982	0.838206	0
61	C	0.436893	0.874129	0.884593
62	N	0.456981	0.914413	0.955846
63	C	0.458732	0.917919	0.14922
64	C	0.480477	0.961529	0.223933
65	C	0.485502	0.971606	0.415924
66	S	0.512307	0.025362	0.457034
67	C	0.518222	0.03722	0.217868
68	C	0.540266	0.081429	0.147441
69	N	0.54214	0.085189	0.953981
70	C	0.562274	0.125565	0.883757
71	C	0.580121	0.161354	0
72	N	0.578531	0.158167	0.192382
73	C	0.558357	0.117709	0.262584
74	C	0.499623	0.999922	0.111586
75	C	0.440594	0.881539	0.263567
76	N	0.420466	0.841175	0.192509
77	H	0.435765	0.871871	0.730002
78	H	0.475032	0.950609	0.53837
79	H	0.563496	0.128017	0.729226
80	H	0.55748	0.115947	0.417291
81	H	0.499675	2.8e-05	0.956472
82	H	0.44136	0.883071	0.418205
83	C	0.1627	0.580346	0
84	C	0.126478	0.562382	0.884593
85	N	0.085858	0.54224	0.955846
86	C	0.082323	0.54049	0.14922
87	C	0.03835	0.518684	0.223933
88	C	0.028189	0.513645	0.415924
89	S	0.973986	0.486768	0.457034
90	C	0.962029	0.48084	0.217868
91	C	0.917451	0.458734	0.147441
92	N	0.91366	0.456854	0.953981
93	C	0.872948	0.436666	0.883757
94	C	0.836861	0.418772	0
95	N	0.840075	0.420365	0.192382
96	C	0.880869	0.440594	0.262584
97	C	0.999638	0.499489	0.111586
98	C	0.119006	0.558683	0.263567
99	N	0.159706	0.578865	0.192509
100	H	0.128754	0.563509	0.730002
101	H	0.049361	0.524145	0.53837
102	H	0.870475	0.435439	0.729226
103	H	0.882646	0.441476	0.417291
104	H	0.99953	0.499435	0.956472
105	H	0.117461	0.557919	0.418205
