data_C78H39N9O6S12_2023-05-15_06:45:30
#******************************************
#
# CIF file created by Zeo++
# Zeo++ is an open source package to
# analyze microporous materials
#
#*******************************************

_cell_length_a		48.0737   
_cell_length_b		48.3722   
_cell_length_c		7   
_cell_angle_alpha		90   
_cell_angle_beta		90   
_cell_angle_gamma		119.73   

_symmetry_space_group_name_H-M		'P1'
_symmetry_Int_Tables_number		1
_symmetry_cell_setting		Monoclinic

loop_
_symmetry_equiv_pos_as_xyz
'+x,+y,+z'

loop_
_atom_site_label
_atom_site_type_symbol
_atom_site_fract_x
_atom_site_fract_y
_atom_site_fract_z
1	C	0.365572	0.673403	0.999995
2	O	0.393836	0.678357	0.999991
3	C	0.340033	0.6403	0.999998
4	C	0.345005	0.615899	0
5	N	0.376644	0.621605	0
6	C	0.307347	0.634424	3e-06
7	O	0.284394	0.605892	5e-06
8	C	0.299483	0.659882	6e-06
9	C	0.269404	0.653739	5e-06
10	N	0.244554	0.621276	0
11	C	0.326251	0.692722	4e-06
12	O	0.320001	0.714737	7e-06
13	C	0.359464	0.700073	0.999999
14	C	0.38306	0.730031	0.999998
15	N	0.378305	0.756625	0
16	H	0.325454	0.592146	1e-06
17	H	0.263051	0.671974	8e-06
18	H	0.406938	0.734309	0.999997
19	C	0.634428	0.326597	0.999995
20	O	0.606164	0.321643	0.999991
21	C	0.659967	0.3597	0.999998
22	C	0.654995	0.384101	0
23	N	0.623356	0.378395	0
24	C	0.692653	0.365576	3e-06
25	O	0.715606	0.394108	5e-06
26	C	0.700517	0.340118	6e-06
27	C	0.730596	0.346261	5e-06
28	N	0.755446	0.378724	0
29	C	0.673749	0.307278	4e-06
30	O	0.679999	0.285263	7e-06
31	C	0.640536	0.299927	0.999999
32	C	0.61694	0.269969	0.999998
33	N	0.621695	0.243375	0
34	H	0.674546	0.407854	1e-06
35	H	0.736949	0.328026	8e-06
36	H	0.593062	0.265691	0.999997
37	C	0.604036	0.39744	0
38	C	0.602329	0.399123	0.194516
39	C	0.585674	0.415541	0.247602
40	C	0.575301	0.425768	0.091839
41	C	0.557785	0.443036	0.091913
42	C	0.547436	0.453238	0.936445
43	C	0.530794	0.469645	0.989794
44	C	0.528814	0.471596	0.184875
45	C	0.512015	0.488157	0.286898
46	C	0.50967	0.490467	0.481401
47	N	0.493352	0.506553	0.514509
48	C	0.485015	0.514773	0.344211
49	C	0.467642	0.5319	0.333676
50	C	0.456761	0.542626	0.483069
51	C	0.440365	0.55879	0.419832
52	C	0.438912	0.560222	0.222967
53	C	0.424256	0.57467	0.109468
54	C	0.422792	0.576113	0.911923
55	C	0.406401	0.592271	0.848358
56	C	0.395964	0.60256	0
57	S	0.405391	0.593266	0.214075
58	S	0.4577	0.5417	0.11899
59	C	0.496533	0.503419	0.200549
60	S	0.546874	0.453791	0.30118
61	S	0.586235	0.414989	0.882047
62	H	0.612295	0.389297	0.294654
63	H	0.581627	0.41953	0.394808
64	H	0.551449	0.449282	0.789148
65	H	0.520928	0.47937	0.88836
66	H	0.518097	0.48216	0.599446
67	H	0.48823	0.511603	0.645483
68	H	0.460126	0.539309	0.63244
69	H	0.43018	0.568831	0.516962
70	H	0.432994	0.566057	0.814981
71	H	0.402703	0.595917	0.699971
72	H	0.494016	0.505901	0.048897
73	C	0.602021	0.204955	0
74	C	0.600342	0.20159	0.194516
75	C	0.583956	0.168752	0.247602
76	C	0.57375	0.1483	0.091839
77	C	0.556517	0.113764	0.091913
78	C	0.546335	0.09336	0.936445
79	C	0.529961	0.060548	0.989794
80	C	0.528014	0.056645	0.184875
81	C	0.511486	0.023523	0.286898
82	C	0.509181	0.018902	0.481401
83	N	0.493126	0.986729	0.514509
84	C	0.484923	0.97029	0.344211
85	C	0.467831	0.936036	0.333676
86	C	0.457126	0.914584	0.483069
87	C	0.440994	0.882257	0.419832
88	C	0.439566	0.879393	0.222967
89	C	0.425146	0.850497	0.109468
90	C	0.423706	0.847611	0.911923
91	C	0.40758	0.815294	0.848358
92	C	0.397312	0.794716	0
93	S	0.406588	0.813304	0.214075
94	S	0.45805	0.916436	0.11899
95	C	0.496255	0.992998	0.200549
96	S	0.545783	0.092253	0.30118
97	S	0.584507	0.169858	0.882047
98	H	0.610148	0.22124	0.294654
99	H	0.579976	0.160775	0.394808
100	H	0.550283	0.101272	0.789148
101	H	0.520255	0.041096	0.88836
102	H	0.517471	0.035516	0.599446
103	H	0.488087	0.97663	0.645483
104	H	0.460436	0.921219	0.63244
105	H	0.430974	0.862176	0.516962
106	H	0.433742	0.867724	0.814981
107	H	0.403941	0.808002	0.699971
108	H	0.493778	0.988035	0.048897
109	C	0.793445	0.397111	0
110	C	0.796831	0.398794	0.194516
111	C	0.829872	0.415213	0.247602
112	C	0.850451	0.425438	0.091839
113	C	0.885201	0.442706	0.091913
114	C	0.905732	0.452908	0.936445
115	C	0.938748	0.469314	0.989794
116	C	0.942675	0.471266	0.184875
117	C	0.976002	0.487827	0.286898
118	C	0.980652	0.490138	0.481401
119	N	0.013024	0.506224	0.514509
120	C	0.029564	0.514443	0.344211
121	C	0.06403	0.53157	0.333676
122	C	0.085616	0.542296	0.483069
123	C	0.118144	0.55846	0.419832
124	C	0.121025	0.559892	0.222967
125	C	0.1501	0.57434	0.109468
126	C	0.153004	0.575783	0.911923
127	C	0.185521	0.591941	0.848358
128	C	0.206227	0.602231	0
129	S	0.187523	0.592937	0.214075
130	S	0.083752	0.54137	0.11899
131	C	0.006715	0.503089	0.200549
132	S	0.906846	0.453462	0.30118
133	S	0.82876	0.414659	0.882047
134	H	0.77706	0.38897	0.294654
135	H	0.837899	0.419202	0.394808
136	H	0.897771	0.448952	0.789148
137	H	0.95832	0.47904	0.88836
138	H	0.963934	0.481831	0.599446
139	H	0.023185	0.511274	0.645483
140	H	0.07894	0.538979	0.63244
141	H	0.138349	0.5685	0.516962
142	H	0.132767	0.565726	0.814981
143	H	0.192858	0.595587	0.699971
144	H	0.011709	0.50557	0.048897
