data_C108H54N6O6S18_2023-05-15_02:20:54
#******************************************
#
# CIF file created by Zeo++
# Zeo++ is an open source package to
# analyze microporous materials
#
#*******************************************

_cell_length_a		60.1316   
_cell_length_b		60.43   
_cell_length_c		7   
_cell_angle_alpha		90   
_cell_angle_beta		90   
_cell_angle_gamma		119.784   

_symmetry_space_group_name_H-M		'P1'
_symmetry_Int_Tables_number		1
_symmetry_cell_setting		Monoclinic

loop_
_symmetry_equiv_pos_as_xyz
'+x,+y,+z'

loop_
_atom_site_label
_atom_site_type_symbol
_atom_site_fract_x
_atom_site_fract_y
_atom_site_fract_z
1	C	0.359113	0.672062	0.999995
2	O	0.381714	0.676029	0.999991
3	C	0.338667	0.645549	0.999998
4	C	0.342621	0.626007	0
5	N	0.36792	0.630577	0
6	C	0.31253	0.640844	3e-06
7	O	0.294155	0.617992	5e-06
8	C	0.306265	0.661233	6e-06
9	C	0.282212	0.656313	5e-06
10	N	0.262317	0.630314	0
11	C	0.327694	0.687534	4e-06
12	O	0.322716	0.705166	7e-06
13	C	0.354253	0.693422	0.999999
14	C	0.373144	0.717415	0.999998
15	N	0.369365	0.738714	0
16	H	0.326969	0.606983	1e-06
17	H	0.277149	0.670917	8e-06
18	H	0.392237	0.720841	0.999997
19	C	0.640887	0.327938	0.999995
20	O	0.618286	0.323971	0.999991
21	C	0.661333	0.354451	0.999998
22	C	0.657379	0.373993	0
23	N	0.63208	0.369423	0
24	C	0.68747	0.359156	3e-06
25	O	0.705845	0.382008	5e-06
26	C	0.693735	0.338767	6e-06
27	C	0.717788	0.343687	5e-06
28	N	0.737683	0.369686	0
29	C	0.672306	0.312466	4e-06
30	O	0.677284	0.294834	7e-06
31	C	0.645747	0.306578	0.999999
32	C	0.626856	0.282585	0.999998
33	N	0.630635	0.261286	0
34	H	0.673031	0.393017	1e-06
35	H	0.722851	0.329083	8e-06
36	H	0.607763	0.279159	0.999997
37	C	0.616651	0.384676	0
38	C	0.614473	0.383462	0.805063
39	S	0.597565	0.397521	0.726237
40	C	0.593064	0.405339	0.954656
41	C	0.578987	0.418684	0.989912
42	C	0.567185	0.426542	0.858411
43	C	0.555013	0.439195	0.944312
44	C	0.557601	0.44092	0.140849
45	C	0.547785	0.452401	0.27401
46	C	0.550221	0.453975	0.470893
47	C	0.538031	0.466592	0.556777
48	C	0.52658	0.474657	0.424272
49	C	0.512022	0.487903	0.457283
50	C	0.493761	0.479785	0.603801
51	C	0.479824	0.492287	0.638385
52	C	0.483791	0.513241	0.527418
53	C	0.469145	0.526244	0.567111
54	C	0.46354	0.532976	0.741591
55	C	0.4485	0.54514	0.72373
56	C	0.442773	0.547472	0.535974
57	C	0.427762	0.558714	0.469898
58	C	0.410382	0.562248	0.576021
59	C	0.398895	0.574102	0.469655
60	C	0.407629	0.579501	0.283416
61	C	0.39997	0.59165	0.13959
62	C	0.388631	0.606451	0.172047
63	C	0.383349	0.615324	0
64	C	0.390449	0.607371	0.839724
65	S	0.403671	0.588934	0.898067
66	S	0.429846	0.570115	0.242336
67	S	0.455713	0.53451	0.384563
68	C	0.502192	0.521477	0.381848
69	C	0.516128	0.508968	0.3472
70	S	0.53057	0.466493	0.197753
71	S	0.574944	0.426991	0.216532
72	C	0.604538	0.397098	0.087059
73	H	0.621874	0.375103	0.704818
74	H	0.567057	0.423486	0.70582
75	H	0.544821	0.446602	0.862822
76	H	0.560285	0.446434	0.552397
77	H	0.537891	0.469713	0.70909
78	H	0.489952	0.463407	0.691497
79	H	0.465586	0.485243	0.751874
80	H	0.470101	0.529559	0.876703
81	H	0.442401	0.551992	0.844613
82	H	0.405791	0.556467	0.723838
83	H	0.384696	0.578228	0.528633
84	H	0.3845	0.610806	0.313232
85	H	0.388604	0.611354	0.691804
86	H	0.506116	0.5379	0.294248
87	H	0.530393	0.516099	0.233854
88	H	0.604242	0.399856	0.239741
89	C	0.614873	0.230516	0
90	C	0.6161	0.229562	0.805063
91	S	0.602075	0.198776	0.726237
92	C	0.594255	0.186523	0.954656
93	C	0.580934	0.159259	0.989912
94	C	0.573105	0.139716	0.858411
95	C	0.56047	0.115032	0.944312
96	C	0.558728	0.115885	0.140849
97	C	0.547258	0.094707	0.27401
98	C	0.545669	0.095558	0.470893
99	C	0.53307	0.070893	0.556777
100	C	0.525032	0.051493	0.424272
101	C	0.511812	0.023849	0.457283
102	C	0.520032	0.013801	0.603801
103	C	0.507556	0.987515	0.638385
104	C	0.486526	0.970591	0.527418
105	C	0.473551	0.943102	0.567111
106	C	0.466824	0.930833	0.741591
107	C	0.454691	0.903789	0.72373
108	C	0.452378	0.895781	0.535974
109	C	0.44117	0.869683	0.469898
110	C	0.437701	0.848908	0.576021
111	C	0.425864	0.8257	0.469655
112	C	0.420411	0.828996	0.283416
113	C	0.408263	0.809295	0.13959
114	C	0.393469	0.7833	0.172047
115	C	0.384594	0.769221	0
116	C	0.392539	0.784189	0.839724
117	S	0.41097	0.815674	0.898067
118	S	0.429728	0.860401	0.242336
119	S	0.46532	0.921535	0.384563
120	C	0.478187	0.980661	0.381848
121	C	0.490671	0.006953	0.3472
122	S	0.533201	0.063583	0.197753
123	S	0.572621	0.146973	0.216532
124	C	0.60247	0.206121	0.087059
125	H	0.62445	0.245233	0.704818
126	H	0.57617	0.142632	0.70582
127	H	0.553086	0.097537	0.862822
128	H	0.553188	0.11306	0.552397
129	H	0.529941	0.067646	0.70909
130	H	0.536472	0.026326	0.691497
131	H	0.514681	0.980391	0.751874
132	H	0.470222	0.940751	0.876703
133	H	0.447846	0.890911	0.844613
134	H	0.443518	0.850105	0.723838
135	H	0.421788	0.807493	0.528633
136	H	0.38912	0.774863	0.313232
137	H	0.388552	0.778391	0.691804
138	H	0.461702	0.968206	0.294248
139	H	0.483458	0.014017	0.233854
140	H	0.599705	0.203081	0.239741
141	C	0.768078	0.384413	0
142	C	0.769029	0.386581	0.805063
143	S	0.799962	0.403307	0.726237
144	C	0.812283	0.407743	0.954656
145	C	0.839681	0.421662	0.989912
146	C	0.859313	0.433347	0.858411
147	C	0.88412	0.445378	0.944312
148	C	0.883272	0.4428	0.140849
149	C	0.904559	0.452497	0.27401
150	C	0.903712	0.450071	0.470893
151	C	0.928501	0.46212	0.556777
152	C	0.94799	0.473455	0.424272
153	C	0.975768	0.487852	0.457283
154	C	0.985808	0.506018	0.603801
155	C	0.012222	0.519803	0.638385
156	C	0.029285	0.515773	0.527418
157	C	0.056907	0.530259	0.567111
158	C	0.069239	0.535795	0.741591
159	C	0.096411	0.550675	0.72373
160	C	0.104452	0.556352	0.535974
161	C	0.130671	0.571208	0.469898
162	C	0.151519	0.588449	0.576021
163	C	0.174843	0.599803	0.469655
164	C	0.171562	0.591108	0.283416
165	C	0.19137	0.59866	0.13959
166	C	0.217502	0.609854	0.172047
167	C	0.231659	0.61506	0
168	C	0.216615	0.608045	0.839724
169	S	0.184961	0.594997	0.898067
170	S	0.140028	0.569088	0.242336
171	S	0.078569	0.54356	0.384563
172	C	0.019223	0.497467	0.381848
173	C	0.992803	0.483684	0.3472
174	S	0.935831	0.469528	0.197753
175	S	0.852037	0.425641	0.216532
176	C	0.792595	0.396386	0.087059
177	H	0.753278	0.379269	0.704818
178	H	0.856375	0.433487	0.70582
179	H	0.901695	0.455465	0.862822
180	H	0.886129	0.440111	0.552397
181	H	0.93177	0.462246	0.70909
182	H	0.973178	0.509871	0.691497
183	H	0.019335	0.533971	0.751874
184	H	0.059279	0.529295	0.876703
185	H	0.109355	0.556702	0.844613
186	H	0.150293	0.593033	0.723838
187	H	0.193119	0.613884	0.528633
188	H	0.225982	0.613936	0.313232
189	H	0.222446	0.609859	0.691804
190	H	0.031784	0.493499	0.294248
191	H	0.985751	0.469489	0.233854
192	H	0.795655	0.396668	0.239741
