data_C129H66N6O6S24_2023-05-13_17:09:54
#******************************************
#
# CIF file created by Zeo++
# Zeo++ is an open source package to
# analyze microporous materials
#
#*******************************************

_cell_length_a		70.5587   
_cell_length_b		70.8571   
_cell_length_c		7   
_cell_angle_alpha		90   
_cell_angle_beta		90   
_cell_angle_gamma		119.816   

_symmetry_space_group_name_H-M		'P1'
_symmetry_Int_Tables_number		1
_symmetry_cell_setting		Monoclinic

loop_
_symmetry_equiv_pos_as_xyz
'+x,+y,+z'

loop_
_atom_site_label
_atom_site_type_symbol
_atom_site_fract_x
_atom_site_fract_y
_atom_site_fract_z
1	C	0.355306	0.671269	0.999995
2	O	0.37457	0.674654	0.999991
3	C	0.337867	0.648651	0.999998
4	C	0.341226	0.63198	0
5	N	0.362789	0.635878	0
6	C	0.31559	0.644637	3e-06
7	O	0.299918	0.625142	5e-06
8	C	0.310262	0.662031	6e-06
9	C	0.289761	0.657834	5e-06
10	N	0.272792	0.635653	0
11	C	0.328539	0.684469	4e-06
12	O	0.324307	0.699511	7e-06
13	C	0.351176	0.689492	0.999999
14	C	0.367289	0.709961	0.999998
15	N	0.36408	0.728131	0
16	H	0.327877	0.61575	1e-06
17	H	0.285454	0.670293	8e-06
18	H	0.383562	0.712884	0.999997
19	C	0.644694	0.328731	0.999995
20	O	0.62543	0.325346	0.999991
21	C	0.662133	0.351349	0.999998
22	C	0.658774	0.36802	0
23	N	0.637211	0.364122	0
24	C	0.68441	0.355363	3e-06
25	O	0.700082	0.374858	5e-06
26	C	0.689738	0.337969	6e-06
27	C	0.710239	0.342166	5e-06
28	N	0.727208	0.364347	0
29	C	0.671461	0.315531	4e-06
30	O	0.675693	0.300489	7e-06
31	C	0.648824	0.310508	0.999999
32	C	0.632711	0.290039	0.999998
33	N	0.63592	0.271869	0
34	H	0.672123	0.38425	1e-06
35	H	0.714546	0.329707	8e-06
36	H	0.616438	0.287116	0.999997
37	C	0.62407	0.377135	0
38	C	0.614999	0.374439	0.177938
39	S	0.599761	0.387033	0.194339
40	C	0.605325	0.396202	0.961824
41	C	0.596658	0.408879	0.874403
42	C	0.594995	0.411703	0.680886
43	C	0.585825	0.425249	0.640895
44	C	0.580568	0.432626	0.8043
45	C	0.571129	0.446686	0.812811
46	C	0.571472	0.460302	0.669698
47	C	0.560469	0.471842	0.721816
48	C	0.551836	0.46691	0.904222
49	C	0.539549	0.475603	0.998602
50	C	0.528396	0.484651	0.911181
51	C	0.51805	0.491842	0.044467
52	C	0.521332	0.488352	0.233477
53	C	0.513362	0.49367	0.401078
54	C	0.515055	0.487608	0.579447
55	C	0.504817	0.495799	0.720068
56	C	0.49675	0.50772	0.594697
57	C	0.485517	0.518912	0.652137
58	C	0.479882	0.521339	0.836286
59	C	0.468622	0.533355	0.84585
60	C	0.465647	0.540089	0.668645
61	C	0.454929	0.552628	0.629243
62	C	0.449054	0.563299	0.761483
63	C	0.438635	0.574115	0.677081
64	C	0.436611	0.571612	0.480935
65	C	0.426974	0.580258	0.349063
66	C	0.426725	0.57946	0.151656
67	C	0.415721	0.589708	0.067595
68	C	0.407662	0.59827	0.201399
69	C	0.395649	0.609558	0.162828
70	C	0.386427	0.610266	0.989875
71	C	0.37593	0.622865	0
72	C	0.377136	0.631608	0.177096
73	S	0.391163	0.62451	0.332998
74	S	0.413657	0.593523	0.427738
75	S	0.44749	0.556	0.403912
76	S	0.476819	0.531636	0.494206
77	C	0.502016	0.506068	0.412906
78	S	0.537337	0.476259	0.241878
79	S	0.557271	0.448191	0.008274
80	S	0.587156	0.42303	0.003785
81	C	0.618641	0.389477	0.875201
82	H	0.616474	0.365787	0.299049
83	H	0.59994	0.404293	0.570809
84	H	0.583103	0.429151	0.497515
85	H	0.57937	0.462157	0.532837
86	H	0.559162	0.483351	0.62866
87	H	0.527422	0.485999	0.757831
88	H	0.508469	0.499253	0.002108
89	H	0.522478	0.478114	0.622006
90	H	0.491293	0.482247	0.795264
91	H	0.516914	0.506786	0.823536
92	H	0.483639	0.514711	0.960787
93	H	0.462937	0.536703	0.978378
94	H	0.452092	0.563575	0.913375
95	H	0.433	0.583349	0.759039
96	H	0.434133	0.571929	0.068509
97	H	0.414026	0.590714	0.914728
98	H	0.387127	0.602012	0.862134
99	H	0.370569	0.641761	0.223439
100	H	0.498655	0.512828	0.287777
101	H	0.624301	0.393382	0.72909
102	C	0.622471	0.245618	0
103	C	0.625207	0.239287	0.177938
104	S	0.61264	0.211595	0.194339
105	C	0.603428	0.20799	0.961824
106	C	0.590753	0.186745	0.874403
107	C	0.587928	0.182279	0.680886
108	C	0.574384	0.159667	0.640895
109	C	0.567009	0.147093	0.8043
110	C	0.552951	0.123703	0.812811
111	C	0.539301	0.110478	0.669698
112	C	0.527774	0.088045	0.721816
113	C	0.53275	0.084377	0.904222
114	C	0.524081	0.063504	0.998602
115	C	0.515053	0.043404	0.911181
116	C	0.507884	0.025956	0.044467
117	C	0.51137	0.032696	0.233477
118	C	0.506069	0.019475	0.401078
119	C	0.512139	0.027198	0.579447
120	C	0.503966	0.00886	0.720068
121	C	0.492047	0.988966	0.594697
122	C	0.48087	0.96665	0.652137
123	C	0.478458	0.958631	0.836286
124	C	0.466455	0.935468	0.84585
125	C	0.459716	0.925801	0.668645
126	C	0.447187	0.902656	0.629243
127	C	0.436513	0.886186	0.761483
128	C	0.42571	0.865053	0.677081
129	C	0.428226	0.865535	0.480935
130	C	0.419595	0.847342	0.349063
131	C	0.420396	0.84789	0.151656
132	C	0.410164	0.826742	0.067595
133	C	0.401611	0.810202	0.201399
134	C	0.390342	0.787015	0.162828
135	C	0.389665	0.777144	0.989875
136	C	0.377075	0.754157	0
137	C	0.368307	0.746646	0.177096
138	S	0.37537	0.76766	0.332998
139	S	0.406347	0.82089	0.427738
140	S	0.443834	0.891903	0.403912
141	S	0.468148	0.945328	0.494206
142	C	0.493683	0.995846	0.412906
143	S	0.523432	0.060651	0.241878
144	S	0.551493	0.108429	0.008274
145	S	0.576603	0.163201	0.003785
146	C	0.610119	0.227925	0.875201
147	H	0.633874	0.249374	0.299049
148	H	0.595338	0.194576	0.570809
149	H	0.570483	0.153075	0.497515
150	H	0.537413	0.116481	0.532837
151	H	0.516243	0.075279	0.62866
152	H	0.513706	0.041093	0.757831
153	H	0.50049	0.00905	0.002108
154	H	0.521628	0.044035	0.622006
155	H	0.517601	0.008921	0.795264
156	H	0.492908	0.009939	0.823536
157	H	0.485087	0.968968	0.960787
158	H	0.46312	0.926481	0.978378
159	H	0.436224	0.88893	0.913375
160	H	0.416474	0.850252	0.759039
161	H	0.427917	0.862756	0.068509
162	H	0.409162	0.824056	0.914728
163	H	0.397937	0.786063	0.862134
164	H	0.358155	0.730004	0.223439
165	H	0.48692	0.98577	0.287777
166	H	0.606184	0.22966	0.72909
167	C	0.753119	0.37691	0
168	C	0.759455	0.385936	0.177938
169	S	0.78726	0.401035	0.194339
170	C	0.790907	0.395471	0.961824
171	C	0.81225	0.404039	0.874403
172	C	0.816737	0.405681	0.680886
173	C	0.839452	0.414746	0.640895
174	C	0.852084	0.419944	0.8043
175	C	0.875582	0.429274	0.812811
176	C	0.888888	0.428883	0.669698
177	C	0.911418	0.439776	0.721816
178	C	0.915075	0.448375	0.904222
179	C	0.93603	0.460555	0.998602
180	C	0.956212	0.471608	0.911181
181	C	0.973727	0.481864	0.044467
182	C	0.966959	0.478615	0.233477
183	C	0.98023	0.486517	0.401078
184	C	0.972467	0.484857	0.579447
185	C	0.990878	0.495003	0.720068
186	C	0.010864	0.502977	0.594697
187	C	0.033274	0.514101	0.652137
188	C	0.041321	0.519692	0.836286
189	C	0.064584	0.530839	0.84585
190	C	0.074298	0.533772	0.668645
191	C	0.097545	0.544379	0.629243
192	C	0.114094	0.550178	0.761483
193	C	0.135317	0.560495	0.677081
194	C	0.134824	0.562516	0.480935
195	C	0.153092	0.572062	0.349063
196	C	0.15254	0.572313	0.151656
197	C	0.173776	0.583213	0.067595
198	C	0.190387	0.591191	0.201399
199	C	0.213671	0.60309	0.162828
200	C	0.223568	0.612253	0.989875
201	C	0.246656	0.62264	0
202	C	0.254217	0.621409	0.177096
203	S	0.233127	0.607493	0.332998
204	S	0.179657	0.58525	0.427738
205	S	0.108336	0.55176	0.403912
206	S	0.054694	0.522698	0.494206
207	C	0.003962	0.497749	0.412906
208	S	0.938892	0.462752	0.241878
209	S	0.890897	0.443042	0.008274
210	S	0.835902	0.413431	0.003785
211	C	0.7709	0.382261	0.875201
212	H	0.749313	0.384502	0.299049
213	H	0.804383	0.400794	0.570809
214	H	0.846075	0.417436	0.497515
215	H	0.882878	0.421025	0.532837
216	H	0.924256	0.441033	0.62866
217	H	0.958533	0.472571	0.757831
218	H	0.990701	0.49136	0.002108
219	H	0.955555	0.477514	0.622006
220	H	0.990767	0.508495	0.795264
221	H	0.989838	0.482938	0.823536
222	H	0.030935	0.515983	0.960787
223	H	0.073604	0.536478	0.978378
224	H	0.111344	0.547158	0.913375
225	H	0.150187	0.566062	0.759039
226	H	0.137611	0.564978	0.068509
227	H	0.176473	0.584893	0.914728
228	H	0.214597	0.611588	0.862134
229	H	0.270937	0.627898	0.223439
230	H	0.014086	0.501064	0.287777
231	H	0.769176	0.376621	0.72909
