data_C60H24N12O6S12_2023-05-27_11:07:09
#******************************************
#
# CIF file created by Zeo++
# Zeo++ is an open source package to
# analyze microporous materials
#
#*******************************************

_cell_length_a		35.4811   
_cell_length_b		35.7797   
_cell_length_c		7   
_cell_angle_alpha		90   
_cell_angle_beta		90   
_cell_angle_gamma		119.635   

_symmetry_space_group_name_H-M		'P1'
_symmetry_Int_Tables_number		1
_symmetry_cell_setting		Monoclinic

loop_
_symmetry_equiv_pos_as_xyz
'+x,+y,+z'

loop_
_atom_site_label
_atom_site_type_symbol
_atom_site_fract_x
_atom_site_fract_y
_atom_site_fract_z
1	C	0.376996	0.675766	0.999995
2	O	0.415279	0.682456	0.999991
3	C	0.34248	0.631054	0.999998
4	C	0.349279	0.598097	0
5	N	0.392132	0.605804	0
6	C	0.298207	0.623117	3e-06
7	O	0.267183	0.58458	5e-06
8	C	0.287487	0.657504	6e-06
9	C	0.246747	0.649206	5e-06
10	N	0.213162	0.605359	0
11	C	0.323669	0.701858	4e-06
12	O	0.315144	0.731594	7e-06
13	C	0.36865	0.711787	0.999999
14	C	0.400544	0.752252	0.999998
15	N	0.394032	0.788171	0
16	H	0.322851	0.566013	1e-06
17	H	0.238092	0.673835	8e-06
18	H	0.432884	0.758029	0.999997
19	C	0.623004	0.324234	0.999995
20	O	0.584721	0.317544	0.999991
21	C	0.65752	0.368946	0.999998
22	C	0.650721	0.401903	0
23	N	0.607868	0.394196	0
24	C	0.701793	0.376883	3e-06
25	O	0.732817	0.41542	5e-06
26	C	0.712513	0.342496	6e-06
27	C	0.753253	0.350794	5e-06
28	N	0.786838	0.394641	0
29	C	0.676331	0.298142	4e-06
30	O	0.684856	0.268406	7e-06
31	C	0.63135	0.288213	0.999999
32	C	0.599456	0.247748	0.999998
33	N	0.605968	0.211829	0
34	H	0.677149	0.433987	1e-06
35	H	0.761908	0.326165	8e-06
36	H	0.567116	0.241971	0.999997
37	C	0.418358	0.58008	0
38	C	0.399258	0.598817	0.104572
39	S	0.405471	0.592725	0.343311
40	C	0.432916	0.565803	0.287501
41	C	0.451785	0.547295	0.441177
42	C	0.448444	0.550576	0.635359
43	S	0.472604	0.526879	0.758767
44	C	0.488102	0.511673	0.553202
45	C	0.5119	0.488329	0.553202
46	C	0.525442	0.475046	0.394268
47	C	0.548216	0.452706	0.441177
48	C	0.567085	0.434198	0.287501
49	N	0.562475	0.438721	0.103755
50	C	0.581642	0.41992	0
51	C	0.600743	0.401184	0.104573
52	S	0.594531	0.407276	0.343311
53	C	0.551559	0.449427	0.635359
54	S	0.5274	0.473125	0.758767
55	C	0.474559	0.524956	0.394268
56	N	0.437526	0.561279	0.103755
57	H	0.382513	0.615241	0.054419
58	H	0.433132	0.565596	0.713076
59	H	0.519497	0.480878	0.248354
60	H	0.617487	0.384759	0.05442
61	H	0.566871	0.434407	0.713076
62	H	0.480504	0.519122	0.248354
63	C	0.419686	0.839619	0
64	C	0.401	0.802147	0.104572
65	S	0.407075	0.814333	0.343311
66	C	0.433924	0.868175	0.287501
67	C	0.452381	0.905191	0.441177
68	C	0.44911	0.898633	0.635359
69	S	0.472742	0.946027	0.758767
70	C	0.487906	0.976434	0.553202
71	C	0.511187	0.023122	0.553202
72	C	0.524434	0.049688	0.394268
73	C	0.546713	0.094366	0.441177
74	C	0.565171	0.131381	0.287501
75	N	0.56066	0.122336	0.103755
76	C	0.57941	0.159937	0
77	C	0.598096	0.197409	0.104573
78	S	0.59202	0.185223	0.343311
79	C	0.549983	0.100923	0.635359
80	S	0.52635	0.053529	0.758767
81	C	0.47466	0.949869	0.394268
82	N	0.438435	0.87722	0.103755
83	H	0.38462	0.769299	0.054419
84	H	0.43413	0.868594	0.713076
85	H	0.518618	0.038024	0.248354
86	H	0.614476	0.230258	0.05442
87	H	0.564963	0.130962	0.713076
88	H	0.480477	0.961533	0.248354
89	C	0.161282	0.579635	0
90	C	0.199069	0.59837	0.104572
91	S	0.186781	0.592276	0.343311
92	C	0.132486	0.565356	0.287501
93	C	0.09516	0.546847	0.441177
94	C	0.101773	0.550125	0.635359
95	S	0.053981	0.526428	0.758767
96	C	0.023318	0.511226	0.553202
97	C	0.976239	0.487883	0.553202
98	C	0.94945	0.4746	0.394268
99	C	0.904397	0.452262	0.441177
100	C	0.867071	0.433754	0.287501
101	N	0.876192	0.438276	0.103755
102	C	0.838274	0.419476	0
103	C	0.800488	0.400741	0.104573
104	S	0.812776	0.406834	0.343311
105	C	0.897784	0.448983	0.635359
106	S	0.945576	0.47268	0.758767
107	C	0.050107	0.524509	0.394268
108	N	0.123365	0.560834	0.103755
109	H	0.232193	0.614794	0.054419
110	H	0.132064	0.565143	0.713076
111	H	0.961212	0.480431	0.248354
112	H	0.767364	0.384317	0.05442
113	H	0.867493	0.433964	0.713076
114	H	0.038345	0.518679	0.248354
