data_C66H30N18O6S6_2023-05-10_22:26:05
#******************************************
#
# CIF file created by Zeo++
# Zeo++ is an open source package to
# analyze microporous materials
#
#*******************************************

_cell_length_a		39.4094   
_cell_length_b		39.708   
_cell_length_c		7   
_cell_angle_alpha		90   
_cell_angle_beta		90   
_cell_angle_gamma		119.672   

_symmetry_space_group_name_H-M		'P1'
_symmetry_Int_Tables_number		1
_symmetry_cell_setting		Monoclinic

loop_
_symmetry_equiv_pos_as_xyz
'+x,+y,+z'

loop_
_atom_site_label
_atom_site_type_symbol
_atom_site_fract_x
_atom_site_fract_y
_atom_site_fract_z
1	C	0.372649	0.674868	0.999995
2	O	0.407121	0.680899	0.999991
3	C	0.341545	0.634565	0.999998
4	C	0.347645	0.604858	0
5	N	0.386231	0.611805	0
6	C	0.30168	0.627412	3e-06
7	O	0.273723	0.592674	5e-06
8	C	0.292051	0.658407	6e-06
9	C	0.255367	0.650927	5e-06
10	N	0.225101	0.611404	0
11	C	0.324656	0.698388	4e-06
12	O	0.317	0.725192	7e-06
13	C	0.36516	0.707338	0.999999
14	C	0.393901	0.743812	0.999998
15	N	0.388061	0.77619	0
16	H	0.32383	0.575938	1e-06
17	H	0.247591	0.673128	8e-06
18	H	0.423021	0.749021	0.999997
19	C	0.627351	0.325132	0.999995
20	O	0.592879	0.319101	0.999991
21	C	0.658455	0.365435	0.999998
22	C	0.652355	0.395142	0
23	N	0.613769	0.388195	0
24	C	0.69832	0.372588	3e-06
25	O	0.726277	0.407326	5e-06
26	C	0.707949	0.341593	6e-06
27	C	0.744633	0.349073	5e-06
28	N	0.774899	0.388596	0
29	C	0.675344	0.301612	4e-06
30	O	0.683	0.274808	7e-06
31	C	0.63484	0.292662	0.999999
32	C	0.606099	0.256188	0.999998
33	N	0.611939	0.22381	0
34	H	0.67617	0.424062	1e-06
35	H	0.752409	0.326872	8e-06
36	H	0.576979	0.250979	0.999997
37	C	0.409826	0.588618	0
38	C	0.406971	0.591419	0.196142
39	N	0.42212	0.576529	0.323084
40	C	0.440553	0.558421	0.247032
41	C	0.45711	0.542153	0.381287
42	C	0.454067	0.545142	0.576419
43	S	0.475464	0.524114	0.704209
44	C	0.489779	0.510045	0.50188
45	C	0.511194	0.489	0.505962
46	C	0.523728	0.476681	0.349722
47	C	0.544372	0.456398	0.397804
48	C	0.560732	0.440318	0.261436
49	N	0.55546	0.4455	0.07413
50	C	0.570505	0.430714	0.945983
51	C	0.590174	0.411382	0
52	N	0.595616	0.406032	0.185595
53	C	0.580555	0.420834	0.313826
54	C	0.546678	0.454127	0.593645
55	S	0.524715	0.475711	0.713371
56	C	0.477894	0.521725	0.34054
57	C	0.443218	0.555806	0.049673
58	N	0.428069	0.570694	0.922451
59	H	0.392343	0.605795	0.258765
60	H	0.440119	0.558849	0.651678
61	H	0.518583	0.481738	0.203142
62	H	0.566099	0.435047	0.797054
63	H	0.585298	0.41617	0.461656
64	H	0.560067	0.440969	0.677388
65	H	0.483975	0.515749	0.197564
66	H	0.457724	0.541555	0.984628
67	C	0.411192	0.822565	0
68	C	0.408398	0.816957	0.196142
69	N	0.423251	0.846735	0.323084
70	C	0.441315	0.882958	0.247032
71	C	0.457543	0.915497	0.381287
72	C	0.454562	0.909519	0.576419
73	S	0.475538	0.951574	0.704209
74	C	0.489572	0.97971	0.50188
75	C	0.510567	0.021801	0.505962
76	C	0.522855	0.046437	0.349722
77	C	0.543089	0.087008	0.397804
78	C	0.559129	0.119166	0.261436
79	N	0.55396	0.108803	0.07413
80	C	0.56871	0.138375	0.945983
81	C	0.587994	0.177035	0
82	N	0.593331	0.187734	0.185595
83	C	0.578566	0.158131	0.313826
84	C	0.545354	0.091546	0.593645
85	S	0.523823	0.048377	0.713371
86	C	0.477921	0.95635	0.34054
87	C	0.443923	0.888191	0.049673
88	N	0.429072	0.858417	0.922451
89	H	0.394057	0.788206	0.258765
90	H	0.440888	0.882104	0.651678
91	H	0.517811	0.036325	0.203142
92	H	0.564388	0.129711	0.797054
93	H	0.583218	0.167455	0.461656
94	H	0.55848	0.117861	0.677388
95	H	0.483883	0.968303	0.197564
96	H	0.45814	0.916699	0.984628
97	C	0.178375	0.588217	0
98	C	0.184025	0.591023	0.196142
99	N	0.154023	0.576135	0.323084
100	C	0.117525	0.55802	0.247032
101	C	0.08474	0.541749	0.381287
102	C	0.090764	0.544739	0.576419
103	S	0.048391	0.523712	0.704209
104	C	0.020042	0.509644	0.50188
105	C	0.977633	0.488599	0.505962
106	C	0.95281	0.47628	0.349722
107	C	0.911933	0.455993	0.397804
108	C	0.879532	0.439915	0.261436
109	N	0.889973	0.445096	0.07413
110	C	0.860178	0.430311	0.945983
111	C	0.821225	0.410982	0
112	N	0.810446	0.405633	0.185595
113	C	0.840273	0.420435	0.313826
114	C	0.907361	0.453727	0.593645
115	S	0.950856	0.475311	0.713371
116	C	0.043579	0.521324	0.34054
117	C	0.112253	0.555402	0.049673
118	N	0.142252	0.570288	0.922451
119	H	0.212994	0.605398	0.258765
120	H	0.118386	0.558446	0.651678
121	H	0.963	0.481337	0.203142
122	H	0.868907	0.434641	0.797054
123	H	0.830877	0.415774	0.461656
124	H	0.880847	0.440569	0.677388
125	H	0.031535	0.515348	0.197564
126	H	0.08353	0.541146	0.984628
