data_C81H39N9O6S12_2023-05-15_17:19:40
#******************************************
#
# CIF file created by Zeo++
# Zeo++ is an open source package to
# analyze microporous materials
#
#*******************************************

_cell_length_a		45.8606   
_cell_length_b		46.1591   
_cell_length_c		7   
_cell_angle_alpha		90   
_cell_angle_beta		90   
_cell_angle_gamma		119.718   

_symmetry_space_group_name_H-M		'P1'
_symmetry_Int_Tables_number		1
_symmetry_cell_setting		Monoclinic

loop_
_symmetry_equiv_pos_as_xyz
'+x,+y,+z'

loop_
_atom_site_label
_atom_site_type_symbol
_atom_site_fract_x
_atom_site_fract_y
_atom_site_fract_z
1	C	0.367125	0.673725	0.999995
2	O	0.396752	0.678916	0.999991
3	C	0.340364	0.639039	0.999998
4	C	0.345582	0.613472	0
5	N	0.378746	0.619451	0
6	C	0.306101	0.632882	3e-06
7	O	0.282049	0.602986	5e-06
8	C	0.297851	0.659558	6e-06
9	C	0.266322	0.653121	5e-06
10	N	0.240282	0.619106	0
11	C	0.325902	0.693967	4e-06
12	O	0.319344	0.717036	7e-06
13	C	0.360715	0.70167	0.999999
14	C	0.385442	0.733061	0.999998
15	N	0.38045	0.760926	0
16	H	0.325094	0.588583	1e-06
17	H	0.259658	0.672228	8e-06
18	H	0.410471	0.737543	0.999997
19	C	0.632875	0.326275	0.999995
20	O	0.603248	0.321084	0.999991
21	C	0.659636	0.360961	0.999998
22	C	0.654418	0.386528	0
23	N	0.621254	0.380549	0
24	C	0.693899	0.367118	3e-06
25	O	0.717951	0.397014	5e-06
26	C	0.702149	0.340442	6e-06
27	C	0.733678	0.346879	5e-06
28	N	0.759718	0.380894	0
29	C	0.674098	0.306033	4e-06
30	O	0.680656	0.282964	7e-06
31	C	0.639285	0.29833	0.999999
32	C	0.614558	0.266939	0.999998
33	N	0.61955	0.239074	0
34	H	0.674906	0.411417	1e-06
35	H	0.740342	0.327772	8e-06
36	H	0.589529	0.262457	0.999997
37	C	0.399003	0.599495	0
38	C	0.38061	0.602794	0.143771
39	S	0.384675	0.585697	0.351507
40	C	0.411276	0.573715	0.248813
41	C	0.424961	0.55646	0.357807
42	C	0.420409	0.54802	0.549487
43	C	0.437743	0.531071	0.609258
44	C	0.455168	0.526566	0.462183
45	C	0.476107	0.510748	0.468044
46	C	0.475846	0.48987	0.323654
47	N	0.494568	0.474532	0.324026
48	C	0.514987	0.479964	0.475487
49	C	0.534739	0.462766	0.472077
50	C	0.547454	0.453123	0.623054
51	C	0.565743	0.437174	0.562573
52	C	0.566876	0.434802	0.366029
53	C	0.583107	0.420264	0.254845
54	C	0.581916	0.415437	0.058787
55	C	0.600997	0.400505	0
56	C	0.616442	0.394065	0.148209
57	S	0.607754	0.406218	0.361232
58	S	0.54548	0.45219	0.258892
59	C	0.516895	0.500297	0.627301
60	C	0.497272	0.515715	0.623089
61	S	0.450468	0.543408	0.254296
62	C	0.416605	0.582967	0.057923
63	H	0.365038	0.614291	0.138138
64	H	0.405303	0.553628	0.645225
65	H	0.437086	0.522413	0.753927
66	H	0.459832	0.484216	0.198745
67	H	0.543706	0.456944	0.771665
68	H	0.577351	0.427833	0.661211
69	H	0.567904	0.422291	0.961977
70	H	0.632315	0.3829	0.143004
71	H	0.533541	0.504649	0.747265
72	H	0.499041	0.531871	0.740834
73	H	0.432455	0.578103	0.963941
74	C	0.400364	0.800838	0
75	C	0.397158	0.779335	0.143771
76	S	0.414294	0.800362	0.351507
77	C	0.42617	0.83863	0.248813
78	C	0.44341	0.869346	0.357807
79	C	0.451906	0.873228	0.549487
80	C	0.468819	0.907253	0.609258
81	C	0.473242	0.928997	0.462183
82	C	0.488999	0.965469	0.468044
83	C	0.509955	0.98597	0.323654
84	N	0.525243	0.019769	0.324026
85	C	0.519675	0.034598	0.475487
86	C	0.536824	0.071268	0.472077
87	C	0.54643	0.093452	0.623054
88	C	0.562333	0.12743	0.562573
89	C	0.564708	0.130912	0.366029
90	C	0.579207	0.161447	0.254845
91	C	0.584058	0.165067	0.058787
92	C	0.598937	0.198818	0
93	C	0.605313	0.220523	0.148209
94	S	0.593165	0.199833	0.361232
95	S	0.547377	0.092424	0.258892
96	C	0.499257	0.016272	0.627301
97	C	0.483893	0.9815	0.623089
98	S	0.456365	0.907593	0.254296
99	C	0.416853	0.83471	0.057923
100	H	0.385707	0.752475	0.138138
101	H	0.446363	0.852685	0.645225
102	H	0.477513	0.915212	0.753927
103	H	0.515721	0.975727	0.198745
104	H	0.542616	0.085939	0.771665
105	H	0.571643	0.148218	0.661211
106	H	0.577259	0.14437	0.961977
107	H	0.616428	0.24735	0.143004
108	H	0.494794	0.028435	0.747265
109	H	0.467668	0.967187	0.740834
110	H	0.421645	0.85525	0.963941
111	C	0.200111	0.59915	0
112	C	0.221711	0.617355	0.143771
113	S	0.200509	0.613424	0.351507
114	C	0.162033	0.587138	0.248813
115	C	0.131108	0.573678	0.357807
116	C	0.127163	0.578235	0.549487
117	C	0.092917	0.561159	0.609258
118	C	0.071068	0.54392	0.462183
119	C	0.034373	0.523266	0.468044
120	C	0.013678	0.523643	0.323654
121	N	0.979668	0.505182	0.324026
122	C	0.964817	0.484921	0.475487
123	C	0.927915	0.46545	0.472077
124	C	0.905595	0.452907	0.623054
125	C	0.871403	0.434879	0.562573
126	C	0.867894	0.433769	0.366029
127	C	0.837165	0.417772	0.254845
128	C	0.833504	0.418978	0.058787
129	C	0.799545	0.40016	0
130	C	0.777724	0.384895	0.148209
131	S	0.798559	0.393432	0.361232
132	S	0.906622	0.454869	0.258892
133	C	0.983326	0.482915	0.627301
134	C	0.018313	0.502268	0.623089
135	S	0.092646	0.548481	0.254296
136	C	0.166021	0.581806	0.057923
137	H	0.248734	0.632716	0.138138
138	H	0.147813	0.59317	0.645225
139	H	0.08488	0.561859	0.753927
140	H	0.023926	0.53954	0.198745
141	H	0.913157	0.456599	0.771665
142	H	0.850485	0.423431	0.661211
143	H	0.854316	0.432822	0.961977
144	H	0.750735	0.369232	0.143004
145	H	0.971144	0.466399	0.747265
146	H	0.03277	0.500424	0.740834
147	H	0.145378	0.56613	0.963941
