data_C90H42N6O6S18_2023-05-15_09:47:41
#******************************************
#
# CIF file created by Zeo++
# Zeo++ is an open source package to
# analyze microporous materials
#
#*******************************************

_cell_length_a		45.4605   
_cell_length_b		45.759   
_cell_length_c		7   
_cell_angle_alpha		90   
_cell_angle_beta		90   
_cell_angle_gamma		119.715   

_symmetry_space_group_name_H-M		'P1'
_symmetry_Int_Tables_number		1
_symmetry_cell_setting		Monoclinic

loop_
_symmetry_equiv_pos_as_xyz
'+x,+y,+z'

loop_
_atom_site_label
_atom_site_type_symbol
_atom_site_fract_x
_atom_site_fract_y
_atom_site_fract_z
1	C	0.367423	0.673787	0.999995
2	O	0.39731	0.679023	0.999991
3	C	0.340427	0.638798	0.999998
4	C	0.345693	0.613008	0
5	N	0.379148	0.619039	0
6	C	0.305863	0.632588	3e-06
7	O	0.281601	0.602431	5e-06
8	C	0.297539	0.659496	6e-06
9	C	0.265733	0.653003	5e-06
10	N	0.239465	0.618691	0
11	C	0.325835	0.694205	4e-06
12	O	0.319219	0.717475	7e-06
13	C	0.360955	0.701975	0.999999
14	C	0.385898	0.73364	0.999998
15	N	0.38086	0.761748	0
16	H	0.325026	0.587902	1e-06
17	H	0.259009	0.672276	8e-06
18	H	0.411146	0.738161	0.999997
19	C	0.632577	0.326213	0.999995
20	O	0.60269	0.320977	0.999991
21	C	0.659573	0.361202	0.999998
22	C	0.654307	0.386992	0
23	N	0.620852	0.380961	0
24	C	0.694137	0.367412	3e-06
25	O	0.718399	0.397569	5e-06
26	C	0.702461	0.340504	6e-06
27	C	0.734267	0.346997	5e-06
28	N	0.760535	0.381309	0
29	C	0.674165	0.305795	4e-06
30	O	0.680781	0.282525	7e-06
31	C	0.639045	0.298025	0.999999
32	C	0.614102	0.26636	0.999998
33	N	0.61914	0.238252	0
34	H	0.674974	0.412098	1e-06
35	H	0.740991	0.327724	8e-06
36	H	0.588854	0.261839	0.999997
37	C	0.399585	0.598909	0
38	C	0.412993	0.585702	0.126231
39	C	0.407147	0.591461	0.319764
40	C	0.419062	0.579724	0.501332
41	C	0.413385	0.585317	0.687353
42	C	0.427186	0.571722	0.820812
43	C	0.443095	0.556051	0.734142
44	C	0.459575	0.539818	0.829324
45	C	0.462453	0.536982	0.024244
46	C	0.480169	0.519531	0.072378
47	C	0.490725	0.509135	0.913955
48	C	0.509275	0.490864	0.913956
49	C	0.51983	0.480468	0.072378
50	C	0.537547	0.463017	0.024245
51	C	0.540425	0.460182	0.829325
52	C	0.556905	0.443949	0.734143
53	C	0.572815	0.428279	0.820813
54	C	0.586617	0.414684	0.687354
55	C	0.580938	0.420276	0.501333
56	C	0.592854	0.40854	0.319764
57	C	0.610466	0.391193	0.329929
58	S	0.619765	0.382032	0.108006
59	C	0.600415	0.401091	0
60	C	0.587007	0.414298	0.126231
61	S	0.559197	0.441691	0.489797
62	S	0.521321	0.478999	0.709122
63	S	0.47868	0.521002	0.709121
64	S	0.440803	0.558308	0.489796
65	C	0.389536	0.608809	0.32993
66	S	0.380236	0.617969	0.108007
67	H	0.426264	0.57263	0.082637
68	H	0.400072	0.59843	0.728994
69	H	0.425308	0.573573	0.974066
70	H	0.452379	0.546903	0.130228
71	H	0.484771	0.514996	0.218235
72	H	0.515227	0.485001	0.218236
73	H	0.54762	0.453095	0.130229
74	H	0.574694	0.426429	0.974067
75	H	0.59993	0.401571	0.728994
76	H	0.618536	0.383244	0.455127
77	H	0.573736	0.427369	0.082638
78	H	0.381466	0.616758	0.455128
79	C	0.400948	0.802008	0
80	C	0.414127	0.828422	0.126231
81	C	0.40838	0.816905	0.319764
82	C	0.420092	0.840379	0.501332
83	C	0.414511	0.829193	0.687353
84	C	0.428077	0.856382	0.820812
85	C	0.443715	0.887724	0.734142
86	C	0.459914	0.92019	0.829324
87	C	0.462744	0.92586	0.024244
88	C	0.480158	0.960762	0.072378
89	C	0.490532	0.981556	0.913955
90	C	0.508764	0.018097	0.913956
91	C	0.519139	0.038891	0.072378
92	C	0.536552	0.073793	0.024245
93	C	0.539382	0.079463	0.829325
94	C	0.55558	0.111929	0.734143
95	C	0.571217	0.143271	0.820813
96	C	0.584783	0.17046	0.687354
97	C	0.579202	0.159274	0.501333
98	C	0.590914	0.182748	0.319764
99	C	0.608225	0.217443	0.329929
100	S	0.617366	0.235763	0.108006
101	C	0.598347	0.197645	0
102	C	0.585168	0.171231	0.126231
103	S	0.557833	0.116444	0.489797
104	S	0.520604	0.041829	0.709122
105	S	0.47869	0.957824	0.709121
106	S	0.441463	0.883209	0.489796
107	C	0.391069	0.78221	0.32993
108	S	0.381928	0.76389	0.108007
109	H	0.427172	0.854566	0.082637
110	H	0.401425	0.802967	0.728994
111	H	0.426231	0.852682	0.974066
112	H	0.452844	0.906016	0.130228
113	H	0.484683	0.969829	0.218235
114	H	0.514614	0.029823	0.218236
115	H	0.546453	0.093637	0.130229
116	H	0.573063	0.146971	0.974067
117	H	0.597868	0.196686	0.728994
118	H	0.616156	0.233341	0.455127
119	H	0.572124	0.145087	0.082638
120	H	0.383137	0.766312	0.455128
121	C	0.198942	0.598561	0
122	C	0.172354	0.585354	0.126231
123	C	0.183946	0.591112	0.319764
124	C	0.160319	0.579376	0.501332
125	C	0.171578	0.584968	0.687353
126	C	0.144211	0.571374	0.820812
127	C	0.112664	0.555704	0.734142
128	C	0.079985	0.539471	0.829324
129	C	0.074277	0.536636	0.024244
130	C	0.039147	0.519186	0.072378
131	C	0.018217	0.508788	0.913955
132	C	0.981436	0.490517	0.913956
133	C	0.960506	0.48012	0.072378
134	C	0.925375	0.462669	0.024245
135	C	0.919668	0.459833	0.829325
136	C	0.886989	0.4436	0.734143
137	C	0.855442	0.427929	0.820813
138	C	0.828075	0.414334	0.687354
139	C	0.839333	0.419928	0.501333
140	C	0.815706	0.408191	0.319764
141	C	0.780784	0.390843	0.329929
142	S	0.762343	0.381683	0.108006
143	C	0.800711	0.400743	0
144	C	0.827299	0.41395	0.126231
145	S	0.882445	0.441343	0.489797
146	S	0.957549	0.478651	0.709122
147	S	0.042104	0.520653	0.709121
148	S	0.117208	0.557961	0.489796
149	C	0.218869	0.60846	0.32993
150	S	0.23731	0.61762	0.108007
151	H	0.146039	0.572283	0.082637
152	H	0.197976	0.598081	0.728994
153	H	0.147935	0.573223	0.974066
154	H	0.094252	0.546559	0.130228
155	H	0.03002	0.514653	0.218235
156	H	0.969633	0.484654	0.218236
157	H	0.905401	0.452746	0.130229
158	H	0.851718	0.426079	0.974067
159	H	0.801676	0.401221	0.728994
160	H	0.764781	0.382894	0.455127
161	H	0.853614	0.427022	0.082638
162	H	0.234871	0.616408	0.455128
