data_C96H48N12O6S12_2023-05-12_08:45:19
#******************************************
#
# CIF file created by Zeo++
# Zeo++ is an open source package to
# analyze microporous materials
#
#*******************************************

_cell_length_a		49.4749   
_cell_length_b		49.7734   
_cell_length_c		7   
_cell_angle_alpha		90   
_cell_angle_beta		90   
_cell_angle_gamma		119.738   

_symmetry_space_group_name_H-M		'P1'
_symmetry_Int_Tables_number		1
_symmetry_cell_setting		Monoclinic

loop_
_symmetry_equiv_pos_as_xyz
'+x,+y,+z'

loop_
_atom_site_label
_atom_site_type_symbol
_atom_site_fract_x
_atom_site_fract_y
_atom_site_fract_z
1	C	0.36466	0.673214	0.999995
2	O	0.392124	0.678029	0.999991
3	C	0.33984	0.64104	0.999998
4	C	0.344667	0.617325	0
5	N	0.375411	0.62287	0
6	C	0.308078	0.635329	3e-06
7	O	0.285771	0.607598	5e-06
8	C	0.300441	0.660073	6e-06
9	C	0.271212	0.654102	5e-06
10	N	0.247061	0.622551	0
11	C	0.326455	0.69199	4e-06
12	O	0.320386	0.713388	7e-06
13	C	0.358728	0.699135	0.999999
14	C	0.381661	0.728252	0.999998
15	N	0.377045	0.754099	0
16	H	0.325666	0.594238	1e-06
17	H	0.265042	0.671825	8e-06
18	H	0.404863	0.73241	0.999997
19	C	0.63534	0.326786	0.999995
20	O	0.607876	0.321971	0.999991
21	C	0.66016	0.35896	0.999998
22	C	0.655333	0.382675	0
23	N	0.624589	0.37713	0
24	C	0.691922	0.364671	3e-06
25	O	0.714229	0.392402	5e-06
26	C	0.699559	0.339927	6e-06
27	C	0.728788	0.345898	5e-06
28	N	0.752939	0.377449	0
29	C	0.673545	0.30801	4e-06
30	O	0.679614	0.286612	7e-06
31	C	0.641272	0.300865	0.999999
32	C	0.618339	0.271748	0.999998
33	N	0.622955	0.245901	0
34	H	0.674334	0.405762	1e-06
35	H	0.734958	0.328175	8e-06
36	H	0.595137	0.26759	0.999997
37	C	0.60582	0.39564	0
38	C	0.614771	0.397008	0.813459
39	S	0.595189	0.409134	0.668141
40	C	0.574381	0.412454	0.855711
41	C	0.551608	0.422352	0.825959
42	C	0.542965	0.430159	0.655844
43	C	0.519472	0.438569	0.67972
44	C	0.510635	0.437258	0.867976
45	C	0.486977	0.443579	0.948516
46	C	0.457559	0.430675	0.864803
47	C	0.435843	0.43718	0.94407
48	N	0.441394	0.455389	0.098346
49	C	0.470145	0.468358	0.178631
50	C	0.475622	0.488398	0.346014
51	C	0.486639	0.483494	0.518408
52	C	0.491736	0.503416	0.670664
53	C	0.485758	0.527737	0.647227
54	C	0.474756	0.531358	0.471659
55	C	0.468363	0.556799	0.436433
56	C	0.482297	0.586078	0.516244
57	C	0.469569	0.604387	0.446358
58	C	0.446054	0.588957	0.314222
59	C	0.42802	0.600265	0.213952
60	C	0.407854	0.586685	0.061414
61	C	0.39418	0.60436	0
62	C	0.4037	0.630879	0.103756
63	S	0.429571	0.634507	0.277454
64	S	0.439871	0.552189	0.278365
65	N	0.469914	0.51223	0.322272
66	C	0.493275	0.462823	0.107504
67	S	0.530849	0.42567	0.012717
68	C	0.582845	0.404426	0.026156
69	H	0.63171	0.391554	0.754699
70	H	0.552807	0.429844	0.518126
71	H	0.509709	0.445392	0.563318
72	H	0.451395	0.415627	0.741134
73	H	0.412618	0.427587	0.884026
74	H	0.490871	0.464201	0.53527
75	H	0.500107	0.499895	0.806757
76	H	0.48935	0.543229	0.765511
77	H	0.50108	0.594346	0.619167
78	H	0.477764	0.628028	0.491655
79	H	0.403221	0.565037	0.996674
80	H	0.396911	0.648307	0.086965
81	H	0.51614	0.47392	0.173516
82	H	0.572904	0.404732	0.163482
83	C	0.603833	0.20856	0
84	C	0.602414	0.216073	0.813459
85	S	0.59035	0.184599	0.668141
86	C	0.587128	0.160667	0.855711
87	C	0.577316	0.128244	0.825959
88	C	0.569528	0.111909	0.655844
89	C	0.561214	0.080253	0.67972
90	C	0.562575	0.072795	0.867976
91	C	0.556357	0.043053	0.948516
92	C	0.569461	0.026725	0.864803
93	C	0.563048	0.998724	0.94407
94	N	0.544748	0.986115	0.098346
95	C	0.531583	0.001718	0.178631
96	C	0.511446	0.987213	0.346014
97	C	0.516309	0.003014	0.518408
98	C	0.496292	0.988249	0.670664
99	C	0.47192	0.95813	0.647227
100	C	0.468345	0.943621	0.471659
101	C	0.442851	0.911975	0.436433
102	C	0.413399	0.896666	0.516244
103	C	0.395095	0.865834	0.446358
104	C	0.410701	0.85787	0.314222
105	C	0.39945	0.828743	0.213952
106	C	0.413182	0.822258	0.061414
107	C	0.395519	0.791121	0
108	C	0.36886	0.774179	0.103756
109	S	0.365083	0.796219	0.277454
110	S	0.447626	0.888314	0.278365
111	N	0.487563	0.957848	0.322272
112	C	0.537015	0.030154	0.107504
113	S	0.574096	0.104362	0.012717
114	C	0.595138	0.177043	0.026156
115	H	0.607796	0.238292	0.754699
116	H	0.569793	0.12198	0.518126
117	H	0.554418	0.063786	0.563318
118	H	0.584591	0.035581	0.741134
119	H	0.572795	0.985242	0.884026
120	H	0.535645	0.0264	0.53527
121	H	0.499781	5.1e-05	0.806757
122	H	0.456356	0.946281	0.765511
123	H	0.405004	0.907062	0.619167
124	H	0.37133	0.850441	0.491655
125	H	0.434928	0.8392	0.996674
126	H	0.351408	0.750112	0.086965
127	H	0.525759	0.041784	0.173516
128	H	0.594884	0.166884	0.163482
129	C	0.789864	0.39532	0
130	C	0.782332	0.386439	0.813459
131	S	0.813978	0.405788	0.668141
132	C	0.838007	0.4264	0.855711
133	C	0.870592	0.448925	0.825959
134	C	0.887024	0.457453	0.655844
135	C	0.918831	0.480699	0.67972
136	C	0.926307	0.489467	0.867976
137	C	0.956183	0.512888	0.948516
138	C	0.972497	0.542121	0.864803
139	C	0.000626	0.563616	0.94407
140	N	0.013375	0.558017	0.098346
141	C	0.997788	0.529445	0.178631
142	C	0.012448	0.52391	0.346014
143	C	0.996569	0.513013	0.518408
144	C	0.011489	0.507855	0.670664
145	C	0.041839	0.513654	0.647227
146	C	0.056416	0.524542	0.471659
147	C	0.088303	0.530746	0.436433
148	C	0.10382	0.516777	0.516244
149	C	0.134852	0.529299	0.446358
150	C	0.142761	0.552693	0.314222
151	C	0.172047	0.570513	0.213952
152	C	0.178481	0.590577	0.061414
153	C	0.209817	0.60404	0
154	C	0.226957	0.594463	0.103756
155	S	0.204862	0.568795	0.277454
156	S	0.112019	0.559017	0.278365
157	N	0.04204	0.529443	0.322272
158	C	0.969227	0.506543	0.107504
159	S	0.894572	0.469488	0.012717
160	C	0.821533	0.418051	0.026156
161	H	0.76001	0.369674	0.754699
162	H	0.876917	0.447697	0.518126
163	H	0.93539	0.490342	0.563318
164	H	0.963531	0.548312	0.741134
165	H	0.014103	0.586691	0.884026
166	H	0.973001	0.508919	0.53527
167	H	0.999628	0.499575	0.806757
168	H	0.05381	0.510011	0.765511
169	H	0.093432	0.498112	0.619167
170	H	0.150423	0.521051	0.491655
171	H	0.161367	0.595284	0.996674
172	H	0.251198	0.601101	0.086965
173	H	0.957617	0.483816	0.173516
174	H	0.831729	0.427905	0.163482
