data_C84H36N12O6S15_2023-05-13_06:05:02
#******************************************
#
# CIF file created by Zeo++
# Zeo++ is an open source package to
# analyze microporous materials
#
#*******************************************

_cell_length_a		49.5284   
_cell_length_b		49.8269   
_cell_length_c		7   
_cell_angle_alpha		90   
_cell_angle_beta		90   
_cell_angle_gamma		119.738   

_symmetry_space_group_name_H-M		'P1'
_symmetry_Int_Tables_number		1
_symmetry_cell_setting		Monoclinic

loop_
_symmetry_equiv_pos_as_xyz
'+x,+y,+z'

loop_
_atom_site_label
_atom_site_type_symbol
_atom_site_fract_x
_atom_site_fract_y
_atom_site_fract_z
1	C	0.364626	0.673207	0.999995
2	O	0.392061	0.678017	0.999991
3	C	0.339833	0.641067	0.999998
4	C	0.344655	0.617378	0
5	N	0.375365	0.622917	0
6	C	0.308105	0.635363	3e-06
7	O	0.285822	0.607662	5e-06
8	C	0.300476	0.66008	6e-06
9	C	0.271279	0.654115	5e-06
10	N	0.247154	0.622598	0
11	C	0.326463	0.691963	4e-06
12	O	0.3204	0.713338	7e-06
13	C	0.358701	0.6991	0.999999
14	C	0.381609	0.728186	0.999998
15	N	0.376998	0.754006	0
16	H	0.325674	0.594316	1e-06
17	H	0.265116	0.67182	8e-06
18	H	0.404786	0.73234	0.999997
19	C	0.635374	0.326793	0.999995
20	O	0.607939	0.321983	0.999991
21	C	0.660167	0.358933	0.999998
22	C	0.655345	0.382622	0
23	N	0.624635	0.377083	0
24	C	0.691895	0.364637	3e-06
25	O	0.714178	0.392338	5e-06
26	C	0.699524	0.33992	6e-06
27	C	0.728721	0.345885	5e-06
28	N	0.752846	0.377402	0
29	C	0.673537	0.308037	4e-06
30	O	0.6796	0.286662	7e-06
31	C	0.641299	0.3009	0.999999
32	C	0.618391	0.271814	0.999998
33	N	0.623002	0.245994	0
34	H	0.674326	0.405684	1e-06
35	H	0.734884	0.32818	8e-06
36	H	0.595214	0.26766	0.999997
37	C	0.605886	0.395573	0
38	C	0.594256	0.407044	0.135413
39	C	0.579064	0.422026	0.049348
40	C	0.56304	0.437831	0.161434
41	C	0.561821	0.439035	0.357088
42	C	0.545872	0.454765	0.419045
43	C	0.535091	0.465396	0.270678
44	C	0.517733	0.482514	0.27369
45	C	0.508309	0.491811	0.107617
46	C	0.491697	0.508194	0.107618
47	C	0.48227	0.517489	0.27369
48	C	0.464912	0.534608	0.270678
49	C	0.454135	0.545242	0.419045
50	C	0.438184	0.560971	0.357088
51	C	0.436962	0.562171	0.161434
52	C	0.420936	0.577974	0.049348
53	C	0.420001	0.578892	0.852387
54	S	0.400983	0.597647	0.773129
55	C	0.394114	0.604427	0
56	C	0.405746	0.592958	0.135413
57	S	0.454907	0.54447	0.055808
58	C	0.490998	0.508881	0.448199
59	N	0.485166	0.514631	0.626887
60	S	0.5	0.5	0.777327
61	N	0.514835	0.48537	0.626887
62	C	0.509005	0.491121	0.448199
63	S	0.545093	0.45553	0.055808
64	C	0.579997	0.421105	0.852387
65	S	0.599014	0.402349	0.773129
66	H	0.596519	0.404814	0.287514
67	H	0.571692	0.429301	0.45417
68	H	0.542752	0.457844	0.568906
69	H	0.51382	0.486376	0.96701
70	H	0.486186	0.51363	0.96701
71	H	0.457258	0.542166	0.568906
72	H	0.428315	0.570707	0.454171
73	H	0.429434	0.569587	0.749308
74	H	0.403485	0.59519	0.287514
75	H	0.570562	0.430409	0.749308
76	C	0.6039	0.208693	0
77	C	0.592452	0.185753	0.135413
78	C	0.577499	0.155789	0.049348
79	C	0.561725	0.12418	0.161434
80	C	0.560523	0.121775	0.357088
81	C	0.544823	0.090315	0.419045
82	C	0.534214	0.069053	0.270678
83	C	0.517128	0.034815	0.27369
84	C	0.50785	0.016224	0.107617
85	C	0.491498	0.983457	0.107618
86	C	0.482221	0.964866	0.27369
87	C	0.465136	0.930628	0.270678
88	C	0.454523	0.909366	0.419045
89	C	0.438824	0.877906	0.357088
90	C	0.437626	0.875501	0.161434
91	C	0.421854	0.843892	0.049348
92	C	0.420937	0.842051	0.852387
93	S	0.402219	0.80454	0.773129
94	C	0.395453	0.790987	0
95	C	0.406899	0.813928	0.135413
96	S	0.455293	0.910899	0.055808
97	C	0.490813	0.982081	0.448199
98	N	0.485074	0.97058	0.626887
99	S	0.499677	0.99984	0.777327
100	N	0.514278	0.029101	0.626887
101	C	0.508538	0.0176	0.448199
102	S	0.544061	0.088782	0.055808
103	C	0.578418	0.15763	0.852387
104	S	0.597138	0.19514	0.773129
105	H	0.594678	0.190215	0.287514
106	H	0.570239	0.141244	0.45417
107	H	0.541751	0.084159	0.568906
108	H	0.513274	0.027094	0.96701
109	H	0.486073	0.972587	0.96701
110	H	0.457593	0.915522	0.568906
111	H	0.429107	0.858437	0.454171
112	H	0.430225	0.86066	0.749308
113	H	0.404671	0.809466	0.287514
114	H	0.569133	0.139021	0.749308
115	C	0.789731	0.395254	0
116	C	0.812809	0.406723	0.135413
117	C	0.842954	0.421706	0.049348
118	C	0.874753	0.43751	0.161434
119	C	0.877172	0.438711	0.357088
120	C	0.908822	0.454441	0.419045
121	C	0.930212	0.465073	0.270678
122	C	0.964656	0.482191	0.27369
123	C	0.983359	0.491486	0.107617
124	C	0.016322	0.507869	0.107618
125	C	0.035026	0.517166	0.27369
126	C	0.069469	0.534284	0.270678
127	C	0.090859	0.544913	0.419045
128	C	0.122509	0.560644	0.357088
129	C	0.124928	0.561849	0.161434
130	C	0.156727	0.577655	0.049348
131	C	0.158579	0.578577	0.852387
132	S	0.196316	0.597333	0.773129
133	C	0.20995	0.604107	0
134	C	0.186872	0.592635	0.135413
135	S	0.089317	0.544152	0.055808
136	C	0.017707	0.508559	0.448199
137	N	0.029277	0.51431	0.626887
138	S	0.999841	0.49968	0.777327
139	N	0.970404	0.48505	0.626887
140	C	0.981974	0.4908	0.448199
141	S	0.910364	0.455209	0.055808
142	C	0.841102	0.420786	0.852387
143	S	0.803366	0.402031	0.773129
144	H	0.80832	0.404492	0.287514
145	H	0.857586	0.428976	0.45417
146	H	0.915015	0.457518	0.568906
147	H	0.972423	0.486051	0.96701
148	H	0.027258	0.513304	0.96701
149	H	0.084666	0.541833	0.568906
150	H	0.142095	0.570377	0.454171
151	H	0.139859	0.569274	0.749308
152	H	0.191361	0.594865	0.287514
153	H	0.859822	0.430091	0.749308
