data_C78H48N6O6_2023-05-10_22:36:55
#******************************************
#
# CIF file created by Zeo++
# Zeo++ is an open source package to
# analyze microporous materials
#
#*******************************************

_cell_length_a		39.7877   
_cell_length_b		40.0863   
_cell_length_c		7   
_cell_angle_alpha		90   
_cell_angle_beta		90   
_cell_angle_gamma		119.675   

_symmetry_space_group_name_H-M		'P1'
_symmetry_Int_Tables_number		1
_symmetry_cell_setting		Monoclinic

loop_
_symmetry_equiv_pos_as_xyz
'+x,+y,+z'

loop_
_atom_site_label
_atom_site_type_symbol
_atom_site_fract_x
_atom_site_fract_y
_atom_site_fract_z
1	C	0.372276	0.674791	0.999995
2	O	0.40642	0.680766	0.999991
3	C	0.341464	0.634867	0.999998
4	C	0.347505	0.60544	0
5	N	0.385725	0.612321	0
6	C	0.301978	0.627781	3e-06
7	O	0.274285	0.59337	5e-06
8	C	0.292443	0.658485	6e-06
9	C	0.256107	0.651075	5e-06
10	N	0.226126	0.611924	0
11	C	0.32474	0.69809	4e-06
12	O	0.317159	0.724642	7e-06
13	C	0.36486	0.706956	0.999999
14	C	0.39333	0.743087	0.999998
15	N	0.387548	0.77516	0
16	H	0.323915	0.576792	1e-06
17	H	0.248406	0.673068	8e-06
18	H	0.422174	0.748246	0.999997
19	C	0.627724	0.325209	0.999995
20	O	0.59358	0.319234	0.999991
21	C	0.658536	0.365133	0.999998
22	C	0.652495	0.39456	0
23	N	0.614275	0.387679	0
24	C	0.698022	0.372219	3e-06
25	O	0.725715	0.40663	5e-06
26	C	0.707557	0.341515	6e-06
27	C	0.743893	0.348925	5e-06
28	N	0.773874	0.388076	0
29	C	0.67526	0.30191	4e-06
30	O	0.682841	0.275358	7e-06
31	C	0.63514	0.293044	0.999999
32	C	0.60667	0.256913	0.999998
33	N	0.612452	0.22484	0
34	H	0.676085	0.423208	1e-06
35	H	0.751594	0.326932	8e-06
36	H	0.577826	0.251754	0.999997
37	C	0.590906	0.410648	0
38	C	0.583701	0.437416	0.071715
39	C	0.549662	0.434604	0.980076
40	C	0.53168	0.458232	0.018397
41	C	0.526325	0.466381	0.206558
42	C	0.509313	0.488951	0.244681
43	C	0.497351	0.503983	0.095275
44	C	0.480216	0.526751	0.13132
45	C	0.468321	0.541769	0.981603
46	C	0.450339	0.565396	0.019924
47	C	0.463629	0.59424	0.148015
48	C	0.438558	0.612578	0.1484
49	C	0.409094	0.589352	0
50	C	0.416299	0.562584	0.928286
51	C	0.473676	0.53362	0.793442
52	C	0.490688	0.511049	0.75532
53	C	0.50265	0.496018	0.904725
54	C	0.519784	0.47325	0.86868
55	C	0.536371	0.40576	0.851982
56	C	0.561442	0.387422	0.851597
57	H	0.600417	0.458331	0.179726
58	H	0.535045	0.454976	0.325798
59	H	0.505443	0.49465	0.392635
60	H	0.475834	0.532581	0.278337
61	H	0.48887	0.603733	0.237451
62	H	0.455359	0.642886	0.108239
63	H	0.425382	0.60985	0.28893
64	H	0.399583	0.541669	0.820276
65	H	0.464955	0.545025	0.674202
66	H	0.494558	0.50535	0.607366
67	H	0.524166	0.467419	0.721664
68	H	0.511131	0.396268	0.762546
69	H	0.574619	0.390151	0.711068
70	H	0.544641	0.357115	0.891756
71	C	0.588732	0.178505	0
72	C	0.561899	0.144785	0.071715
73	C	0.564945	0.113902	0.980076
74	C	0.541335	0.072639	0.018397
75	C	0.533186	0.059245	0.206558
76	C	0.510632	0.019992	0.244681
77	C	0.495615	0.993224	0.095275
78	C	0.472862	0.953654	0.13132
79	C	0.457859	0.926965	0.981603
80	C	0.434249	0.885702	0.019924
81	C	0.405196	0.870195	0.148015
82	C	0.386944	0.827173	0.1484
83	C	0.410462	0.821098	0
84	C	0.437295	0.854819	0.928286
85	C	0.466007	0.940359	0.793442
86	C	0.488562	0.979612	0.75532
87	C	0.503579	0.006379	0.904725
88	C	0.526331	0.04595	0.86868
89	C	0.593998	0.129409	0.851982
90	C	0.612249	0.17243	0.851597
91	H	0.540786	0.140543	0.179726
92	H	0.544582	0.079203	0.325798
93	H	0.504934	0.010501	0.392635
94	H	0.467036	0.943526	0.278337
95	H	0.395498	0.885736	0.237451
96	H	0.356399	0.813686	0.108239
97	H	0.38977	0.816848	0.28893
98	H	0.458409	0.859061	0.820276
99	H	0.454611	0.920401	0.674202
100	H	0.49426	0.989103	0.607366
101	H	0.532157	0.056078	0.721664
102	H	0.603695	0.113868	0.762546
103	H	0.609423	0.182756	0.711068
104	H	0.642795	0.185918	0.891756
105	C	0.819761	0.410251	0
106	C	0.853799	0.417204	0.071715
107	C	0.884793	0.450899	0.980076
108	C	0.926385	0.468535	0.018397
109	C	0.939888	0.473779	0.206558
110	C	0.979454	0.490462	0.244681
111	C	0.006434	0.502198	0.095275
112	C	0.04632	0.519001	0.13132
113	C	0.07322	0.530671	0.981603
114	C	0.114812	0.548307	0.019924
115	C	0.130574	0.53497	0.148015
116	C	0.173897	0.559653	0.1484
117	C	0.179844	0.588955	0
118	C	0.145805	0.582002	0.928286
119	C	0.059716	0.525427	0.793442
120	C	0.02015	0.508744	0.75532
121	C	0.993171	0.497008	0.904725
122	C	0.953284	0.480205	0.86868
123	C	0.86903	0.464236	0.851982
124	C	0.825707	0.439552	0.851597
125	H	0.858196	0.400531	0.179726
126	H	0.919771	0.465226	0.325798
127	H	0.989023	0.494254	0.392635
128	H	0.056529	0.523298	0.278337
129	H	0.115031	0.509936	0.237451
130	H	0.187641	0.542834	0.108239
131	H	0.184248	0.572707	0.28893
132	H	0.141408	0.598676	0.820276
133	H	0.079833	0.533979	0.674202
134	H	0.010581	0.504952	0.607366
135	H	0.943075	0.475908	0.721664
136	H	0.884574	0.489269	0.762546
137	H	0.815357	0.426499	0.711068
138	H	0.811963	0.456372	0.891756
