data_C105H51N9O6S18_2023-05-15_12:07:29
#******************************************
#
# CIF file created by Zeo++
# Zeo++ is an open source package to
# analyze microporous materials
#
#*******************************************

_cell_length_a		56.531   
_cell_length_b		56.8295   
_cell_length_c		7   
_cell_angle_alpha		90   
_cell_angle_beta		90   
_cell_angle_gamma		119.771   

_symmetry_space_group_name_H-M		'P1'
_symmetry_Int_Tables_number		1
_symmetry_cell_setting		Monoclinic

loop_
_symmetry_equiv_pos_as_xyz
'+x,+y,+z'

loop_
_atom_site_label
_atom_site_type_symbol
_atom_site_fract_x
_atom_site_fract_y
_atom_site_fract_z
1	C	0.360753	0.672403	0.999995
2	O	0.384793	0.676621	0.999991
3	C	0.339013	0.644215	0.999998
4	C	0.343224	0.623437	0
5	N	0.370133	0.628296	0
6	C	0.311212	0.639211	3e-06
7	O	0.291674	0.614916	5e-06
8	C	0.304543	0.66089	6e-06
9	C	0.278959	0.655658	5e-06
10	N	0.257804	0.628016	0
11	C	0.327329	0.688853	4e-06
12	O	0.322029	0.7076	7e-06
13	C	0.355577	0.695113	0.999999
14	C	0.375665	0.720623	0.999998
15	N	0.371639	0.743268	0
16	H	0.326582	0.60321	1e-06
17	H	0.273569	0.671186	8e-06
18	H	0.395973	0.724266	0.999997
19	C	0.639247	0.327597	0.999995
20	O	0.615207	0.323379	0.999991
21	C	0.660987	0.355785	0.999998
22	C	0.656776	0.376563	0
23	N	0.629867	0.371704	0
24	C	0.688788	0.360789	3e-06
25	O	0.708326	0.385084	5e-06
26	C	0.695457	0.33911	6e-06
27	C	0.721041	0.344342	5e-06
28	N	0.742196	0.371984	0
29	C	0.672671	0.311147	4e-06
30	O	0.677971	0.2924	7e-06
31	C	0.644423	0.304887	0.999999
32	C	0.624335	0.279377	0.999998
33	N	0.628361	0.256732	0
34	H	0.673418	0.39679	1e-06
35	H	0.726431	0.328814	8e-06
36	H	0.604027	0.275734	0.999997
37	C	0.61345	0.387922	0
38	C	0.602479	0.400901	0.899929
39	C	0.595864	0.416743	0.024138
40	C	0.602052	0.415287	0.214121
41	C	0.598117	0.428584	0.378022
42	C	0.606533	0.429154	0.564274
43	C	0.599077	0.444268	0.689056
44	C	0.58495	0.455034	0.597212
45	C	0.574696	0.47145	0.682789
46	C	0.582463	0.484791	0.856429
47	C	0.568397	0.499109	0.901216
48	C	0.550073	0.496544	0.760942
49	C	0.531736	0.507865	0.756473
50	C	0.527149	0.518804	0.591387
51	C	0.509631	0.529552	0.595957
52	C	0.496923	0.529301	0.766911
53	C	0.478117	0.540042	0.790537
54	C	0.464793	0.540542	0.955139
55	C	0.448042	0.552473	0.927543
56	C	0.448628	0.560995	0.74162
57	C	0.434062	0.574027	0.666965
58	C	0.420961	0.584751	0.772433
59	C	0.408376	0.596077	0.656247
60	C	0.411877	0.59381	0.462985
61	C	0.401849	0.60341	0.30811
62	C	0.392972	0.622156	0.321451
63	C	0.38413	0.627223	0.142794
64	C	0.38655	0.612078	0
65	S	0.399042	0.592173	0.076083
66	S	0.430608	0.57796	0.427298
67	S	0.469793	0.554267	0.604886
68	N	0.5011	0.518887	0.929526
69	C	0.518143	0.508538	0.920335
70	S	0.550145	0.476556	0.577908
71	S	0.581218	0.446596	0.359509
72	S	0.615923	0.394388	0.236995
73	H	0.599247	0.399336	0.746895
74	H	0.586963	0.428674	0.974174
75	H	0.617655	0.419248	0.611635
76	H	0.603891	0.446827	0.84005
77	H	0.597754	0.484581	0.948586
78	H	0.571873	0.510908	0.030388
79	H	0.537211	0.519345	0.457721
80	H	0.506396	0.537926	0.465825
81	H	0.467041	0.53256	0.090412
82	H	0.436085	0.55447	0.040681
83	H	0.420348	0.584697	0.927115
84	H	0.397151	0.60532	0.71405
85	H	0.392902	0.63209	0.453362
86	H	0.376538	0.641191	0.122458
87	H	0.520415	0.500323	0.054931
88	C	0.611604	0.224017	0
89	C	0.598638	0.200208	0.899929
90	C	0.582778	0.177874	0.024138
91	C	0.58421	0.185465	0.214121
92	C	0.570892	0.168324	0.378022
93	C	0.570281	0.176109	0.564274
94	C	0.555157	0.153665	0.689056
95	C	0.544424	0.128928	0.597212
96	C	0.528007	0.102412	0.682789
97	C	0.51459	0.09684	0.856429
98	C	0.500295	0.068629	0.901216
99	C	0.502952	0.052996	0.760942
100	C	0.491682	0.023528	0.756473
101	C	0.480732	0.008087	0.591387
102	C	0.470032	0.980002	0.595957
103	C	0.470343	0.96764	0.766911
104	C	0.459657	0.938285	0.790537
105	C	0.459217	0.924563	0.955139
106	C	0.447328	0.896063	0.927543
107	C	0.438778	0.888162	0.74162
108	C	0.425774	0.860733	0.666965
109	C	0.415079	0.837057	0.772433
110	C	0.403777	0.813293	0.656247
111	C	0.406035	0.819024	0.462985
112	C	0.396452	0.799516	0.30811
113	C	0.377692	0.772047	0.321451
114	C	0.37265	0.758227	0.142794
115	C	0.387829	0.775704	0
116	S	0.407736	0.807916	0.076083
117	S	0.421845	0.85339	0.427298
118	S	0.445428	0.915864	0.604886
119	N	0.480769	0.982152	0.929526
120	C	0.49107	0.009368	0.920335
121	S	0.522999	0.072963	0.577908
122	S	0.552905	0.133623	0.359509
123	S	0.605108	0.220034	0.236995
124	H	0.600221	0.198558	0.746895
125	H	0.570853	0.157164	0.974174
126	H	0.580166	0.197008	0.611635
127	H	0.552568	0.155895	0.84005
128	H	0.514731	0.112225	0.948586
129	H	0.488445	0.060334	0.030388
130	H	0.480143	0.017534	0.457721
131	H	0.461648	0.968457	0.465825
132	H	0.467212	0.93474	0.090412
133	H	0.44538	0.882208	0.040681
134	H	0.415136	0.836503	0.927115
135	H	0.394558	0.792952	0.71405
136	H	0.367729	0.762089	0.453362
137	H	0.358676	0.736789	0.122458
138	H	0.499299	0.0198	0.054931
139	C	0.774522	0.387641	0
140	C	0.798461	0.398471	0.899929
141	C	0.820935	0.404963	0.024138
142	C	0.813314	0.398827	0.214121
143	C	0.830568	0.402672	0.378022
144	C	0.822762	0.394316	0.564274
145	C	0.845343	0.401647	0.689056
146	C	0.870202	0.415617	0.597212
147	C	0.896874	0.425718	0.682789
148	C	0.902523	0.417949	0.856429
149	C	0.930884	0.431842	0.901216
150	C	0.946551	0.45004	0.760942
151	C	0.976159	0.468186	0.756473
152	C	0.991696	0.472689	0.591387
153	C	0.019914	0.490025	0.595957
154	C	0.032311	0.502638	0.766911
155	C	0.061803	0.521253	0.790537
156	C	0.075567	0.534474	0.955139
157	C	0.104207	0.551044	0.927543
158	C	0.112171	0.550423	0.74162
159	C	0.139741	0.564819	0.666965
160	C	0.163537	0.577772	0.772433
161	C	0.187424	0.59021	0.656247
162	C	0.181665	0.586746	0.462985
163	C	0.201276	0.596654	0.30811
164	C	0.228913	0.605377	0.321451
165	C	0.242797	0.61413	0.142794
166	C	0.225198	0.611798	0
167	S	0.192798	0.599491	0.076083
168	S	0.147124	0.568229	0.427298
169	S	0.084356	0.529449	0.604886
170	N	0.017708	0.498541	0.929526
171	C	0.990364	0.481674	0.920335
172	S	0.926433	0.45006	0.577908
173	S	0.865455	0.419361	0.359509
174	S	0.778547	0.385158	0.236995
175	H	0.800108	0.401685	0.746895
176	H	0.841761	0.413741	0.974174
177	H	0.801756	0.383324	0.611635
178	H	0.843118	0.396857	0.84005
179	H	0.887093	0.402774	0.948586
180	H	0.939259	0.428339	0.030388
181	H	0.982224	0.4627	0.457721
182	H	0.031532	0.493197	0.465825
183	H	0.065323	0.53228	0.090412
184	H	0.118112	0.562902	0.040681
185	H	0.164092	0.57838	0.927115
186	H	0.207867	0.601308	0.71405
187	H	0.238946	0.605401	0.453362
188	H	0.264363	0.6216	0.122458
189	H	0.979863	0.479457	0.054931
