data_C66H24N12O6S12_2023-05-15_16:08:14
#******************************************
#
# CIF file created by Zeo++
# Zeo++ is an open source package to
# analyze microporous materials
#
#*******************************************

_cell_length_a		43.3355   
_cell_length_b		43.634   
_cell_length_c		7   
_cell_angle_alpha		90   
_cell_angle_beta		90   
_cell_angle_gamma		119.701   

_symmetry_space_group_name_H-M		'P1'
_symmetry_Int_Tables_number		1
_symmetry_cell_setting		Monoclinic

loop_
_symmetry_equiv_pos_as_xyz
'+x,+y,+z'

loop_
_atom_site_label
_atom_site_type_symbol
_atom_site_fract_x
_atom_site_fract_y
_atom_site_fract_z
1	C	0.369092	0.674133	0.999995
2	O	0.400444	0.679623	0.999991
3	C	0.340783	0.637445	0.999998
4	C	0.346315	0.610403	0
5	N	0.381409	0.616727	0
6	C	0.304526	0.630933	3e-06
7	O	0.279083	0.599312	5e-06
8	C	0.295786	0.659148	6e-06
9	C	0.262422	0.652339	5e-06
10	N	0.234877	0.616362	0
11	C	0.325459	0.695542	4e-06
12	O	0.318512	0.719942	7e-06
13	C	0.362298	0.70369	0.999999
14	C	0.388455	0.736892	0.999998
15	N	0.383163	0.766365	0
16	H	0.324642	0.584078	1e-06
17	H	0.255363	0.672549	8e-06
18	H	0.414941	0.741633	0.999997
19	C	0.630908	0.325867	0.999995
20	O	0.599556	0.320377	0.999991
21	C	0.659217	0.362555	0.999998
22	C	0.653685	0.389597	0
23	N	0.618591	0.383273	0
24	C	0.695474	0.369067	3e-06
25	O	0.720917	0.400688	5e-06
26	C	0.704214	0.340852	6e-06
27	C	0.737578	0.347661	5e-06
28	N	0.765123	0.383638	0
29	C	0.674541	0.304458	4e-06
30	O	0.681488	0.280058	7e-06
31	C	0.637702	0.29631	0.999999
32	C	0.611545	0.263108	0.999998
33	N	0.616837	0.233635	0
34	H	0.675358	0.415922	1e-06
35	H	0.744637	0.327451	8e-06
36	H	0.585059	0.258367	0.999997
37	C	0.402853	0.595619	0
38	C	0.406718	0.591813	0.191298
39	C	0.425622	0.573206	0.222297
40	C	0.435425	0.563559	0.053821
41	C	0.454769	0.54452	0.040133
42	N	0.464815	0.534632	0.19512
43	C	0.482777	0.516953	0.146537
44	C	0.497247	0.50271	0.274037
45	C	0.514803	0.48543	0.205583
46	C	0.518377	0.481913	0.010342
47	C	0.503909	0.496153	0.882861
48	C	0.486354	0.513431	0.951292
49	S	0.466441	0.533031	0.828362
50	N	0.53633	0.464242	0.96187
51	C	0.546396	0.454334	0.116445
52	C	0.565771	0.435264	0.108738
53	C	0.577957	0.423271	0.258511
54	C	0.59617	0.405344	0.195384
55	C	0.597147	0.404381	0
56	S	0.576858	0.424349	0.892571
57	S	0.534723	0.465824	0.32853
58	S	0.421303	0.577461	0.859606
59	H	0.396745	0.601628	0.303714
60	H	0.431857	0.567067	0.362282
61	H	0.49458	0.505335	0.426618
62	H	0.506583	0.49352	0.73026
63	H	0.574171	0.426999	0.407964
64	H	0.607711	0.393986	0.289257
65	C	0.404223	0.808579	0
66	C	0.408021	0.81619	0.191298
67	C	0.426587	0.853403	0.222297
68	C	0.436212	0.872698	0.053821
69	C	0.455209	0.910777	0.040133
70	N	0.465075	0.930554	0.19512
71	C	0.482715	0.965913	0.146537
72	C	0.496927	0.994399	0.274037
73	C	0.514167	0.028957	0.205583
74	C	0.517677	0.035993	0.010342
75	C	0.503468	0.007512	0.882861
76	C	0.486229	0.972955	0.951292
77	S	0.466673	0.933756	0.828362
78	N	0.535309	0.071334	0.96187
79	C	0.545195	0.091151	0.116445
80	C	0.564222	0.129291	0.108738
81	C	0.576189	0.153278	0.258511
82	C	0.594076	0.189132	0.195384
83	C	0.595037	0.191057	0
84	S	0.575113	0.151118	0.892571
85	S	0.533731	0.068172	0.32853
86	S	0.422341	0.844897	0.859606
87	H	0.398227	0.796557	0.303714
88	H	0.432712	0.865679	0.362282
89	H	0.494307	0.989148	0.426618
90	H	0.506095	0.012777	0.73026
91	H	0.572469	0.145824	0.407964
92	H	0.605409	0.21185	0.289257
93	C	0.192372	0.595255	0
94	C	0.184709	0.59145	0.191298
95	C	0.14724	0.572844	0.222297
96	C	0.127811	0.563195	0.053821
97	C	0.089471	0.544155	0.040133
98	N	0.069559	0.534267	0.19512
99	C	0.033956	0.516587	0.146537
100	C	0.005275	0.502345	0.274037
101	C	0.970478	0.485065	0.205583
102	C	0.963394	0.481547	0.010342
103	C	0.992071	0.495788	0.882861
104	C	0.026865	0.513066	0.951292
105	S	0.066335	0.532667	0.828362
106	N	0.92781	0.463877	0.96187
107	C	0.907857	0.453968	0.116445
108	C	0.869455	0.434898	0.108738
109	C	0.845303	0.422904	0.258511
110	C	0.809202	0.404977	0.195384
111	C	0.807265	0.404016	0
112	S	0.847478	0.423986	0.892571
113	S	0.930994	0.465458	0.32853
114	S	0.155804	0.577095	0.859606
115	H	0.204476	0.601267	0.303714
116	H	0.134879	0.566707	0.362282
117	H	0.010562	0.50497	0.426618
118	H	0.98677	0.493155	0.73026
119	H	0.852808	0.42663	0.407964
120	H	0.786328	0.393618	0.289257
