data_C60H30I6N6O6S6_2023-05-11_08:51:10
#******************************************
#
# CIF file created by Zeo++
# Zeo++ is an open source package to
# analyze microporous materials
#
#*******************************************

_cell_length_a		25.9598   
_cell_length_b		26.2586   
_cell_length_c		7   
_cell_angle_alpha		90   
_cell_angle_beta		90   
_cell_angle_gamma		119.503   

_symmetry_space_group_name_H-M		'P1'
_symmetry_Int_Tables_number		1
_symmetry_cell_setting		Monoclinic

loop_
_symmetry_equiv_pos_as_xyz
'+x,+y,+z'

loop_
_atom_site_label
_atom_site_type_symbol
_atom_site_fract_x
_atom_site_fract_y
_atom_site_fract_z
1	C	0.392976	0.679049	0.999995
2	O	0.445275	0.688153	0.999991
3	C	0.345964	0.618204	0.999998
4	C	0.355378	0.573357	0
5	N	0.41392	0.583844	0
6	C	0.285482	0.607405	3e-06
7	O	0.243221	0.554963	5e-06
8	C	0.270704	0.654197	6e-06
9	C	0.215053	0.642906	5e-06
10	N	0.169311	0.583239	0
11	C	0.319995	0.714556	4e-06
12	O	0.308235	0.755021	7e-06
13	C	0.381438	0.728067	0.999999
14	C	0.424881	0.783131	0.999998
15	N	0.415849	0.83201	0
16	H	0.319374	0.529697	1e-06
17	H	0.203134	0.676422	8e-06
18	H	0.469062	0.790994	0.999997
19	C	0.607024	0.320951	0.999995
20	O	0.554725	0.311847	0.999991
21	C	0.654036	0.381796	0.999998
22	C	0.644622	0.426643	0
23	N	0.58608	0.416156	0
24	C	0.714518	0.392595	3e-06
25	O	0.756779	0.445037	5e-06
26	C	0.729296	0.345803	6e-06
27	C	0.784947	0.357094	5e-06
28	N	0.830689	0.416761	0
29	C	0.680005	0.285444	4e-06
30	O	0.691765	0.244979	7e-06
31	C	0.618562	0.271933	0.999999
32	C	0.575119	0.216869	0.999998
33	N	0.584151	0.16799	0
34	H	0.680626	0.470303	1e-06
35	H	0.796866	0.323578	8e-06
36	H	0.530938	0.209006	0.999997
37	C	0.449859	0.548839	0
38	C	0.467547	0.577968	0.170965
39	C	0.444106	0.538341	0.328675
40	C	0.454409	0.554495	0.527484
41	C	0.489404	0.536346	0.645159
42	C	0.537474	0.532241	0.597953
43	C	0.569436	0.547078	0.416245
44	C	0.607924	0.603325	0.370769
45	I	0.630675	0.676794	0.532373
46	C	0.559064	0.499622	0.286956
47	C	0.540802	0.44295	0.34654
48	S	0.53068	0.396533	0.160242
49	C	0.550141	0.451161	0
50	C	0.564753	0.503958	0.082579
51	C	0.429843	0.582747	0.618014
52	I	0.374785	0.610199	0.503742
53	C	0.409537	0.481131	0.268609
54	S	0.405332	0.475666	0.024369
55	H	0.49591	0.624851	0.183862
56	H	0.474128	0.5252	0.792377
57	H	0.556576	0.516765	0.706625
58	H	0.631893	0.613555	0.236529
59	H	0.532486	0.42568	0.490331
60	H	0.577393	0.543282	0.000217
61	H	0.43851	0.593024	0.768981
62	H	0.386396	0.442163	0.355168
63	C	0.450724	0.902021	0
64	C	0.421228	0.890582	0.170965
65	C	0.461348	0.906755	0.328675
66	C	0.444986	0.900897	0.527484
67	C	0.462904	0.95329	0.645159
68	C	0.466557	0.004643	0.597953
69	C	0.451305	0.021396	0.416245
70	C	0.394308	0.003571	0.370769
71	I	0.320134	0.953215	0.532373
72	C	0.499173	0.058176	0.286956
73	C	0.556396	0.096317	0.34654
74	S	0.603216	0.132315	0.160242
75	C	0.548038	0.097376	0
76	C	0.494752	0.05948	0.082579
77	C	0.416794	0.84876	0.618014
78	I	0.389712	0.76742	0.503742
79	C	0.519274	0.929388	0.268609
80	S	0.524817	0.930662	0.024369
81	H	0.373758	0.872068	0.183862
82	H	0.474275	0.949299	0.792377
83	H	0.481943	0.038756	0.706625
84	H	0.383773	0.017022	0.236529
85	H	0.573861	0.105235	0.490331
86	H	0.455046	0.032981	0.000217
87	H	0.406364	0.847112	0.768981
88	H	0.558726	0.945203	0.355168
89	C	0.098497	0.548234	0
90	C	0.110305	0.530543	0.170965
91	C	0.093626	0.553998	0.328675
92	C	0.099685	0.543702	0.527484
93	C	0.046773	0.509457	0.645159
94	C	0.995049	0.46221	0.597953
95	C	0.978339	0.430619	0.416245
96	C	0.996848	0.392198	0.370769
97	I	0.048271	0.369084	0.532373
98	C	0.940843	0.441296	0.286956
99	C	0.901883	0.459826	0.34654
100	S	0.865184	0.470246	0.160242
101	C	0.900901	0.450556	0
102	C	0.939574	0.435656	0.082579
103	C	0.152443	0.567586	0.618014
104	I	0.234582	0.621474	0.503742
105	C	0.070268	0.588574	0.268609
106	S	0.068931	0.592766	0.024369
107	H	0.129412	0.502174	0.183862
108	H	0.050677	0.524595	0.792377
109	H	0.960561	0.443572	0.706625
110	H	0.983414	0.368516	0.236529
111	H	0.892733	0.468178	0.490331
112	H	0.966641	0.422829	0.000217
113	H	0.154205	0.558957	0.768981
114	H	0.053958	0.611727	0.355168
