data_C78H36N6O6S15_2023-05-12_10:12:56
#******************************************
#
# CIF file created by Zeo++
# Zeo++ is an open source package to
# analyze microporous materials
#
#*******************************************

_cell_length_a		47.5317   
_cell_length_b		47.8302   
_cell_length_c		7   
_cell_angle_alpha		90   
_cell_angle_beta		90   
_cell_angle_gamma		119.727   

_symmetry_space_group_name_H-M		'P1'
_symmetry_Int_Tables_number		1
_symmetry_cell_setting		Monoclinic

loop_
_symmetry_equiv_pos_as_xyz
'+x,+y,+z'

loop_
_atom_site_label
_atom_site_type_symbol
_atom_site_fract_x
_atom_site_fract_y
_atom_site_fract_z
1	C	0.365939	0.673479	0.999995
2	O	0.394525	0.678489	0.999991
3	C	0.340111	0.640002	0.999998
4	C	0.345141	0.615326	0
5	N	0.377141	0.621096	0
6	C	0.307052	0.63406	3e-06
7	O	0.28384	0.605205	5e-06
8	C	0.299098	0.659806	6e-06
9	C	0.268675	0.653593	5e-06
10	N	0.243544	0.620763	0
11	C	0.326168	0.693016	4e-06
12	O	0.319846	0.715281	7e-06
13	C	0.359759	0.70045	0.999999
14	C	0.383623	0.730747	0.999998
15	N	0.378812	0.757642	0
16	H	0.325369	0.591303	1e-06
17	H	0.262249	0.672034	8e-06
18	H	0.407773	0.735074	0.999997
19	C	0.634061	0.326521	0.999995
20	O	0.605475	0.321511	0.999991
21	C	0.659889	0.359998	0.999998
22	C	0.654859	0.384674	0
23	N	0.622859	0.378904	0
24	C	0.692948	0.36594	3e-06
25	O	0.71616	0.394795	5e-06
26	C	0.700902	0.340194	6e-06
27	C	0.731325	0.346407	5e-06
28	N	0.756456	0.379237	0
29	C	0.673832	0.306984	4e-06
30	O	0.680154	0.284719	7e-06
31	C	0.640241	0.29955	0.999999
32	C	0.616377	0.269253	0.999998
33	N	0.621188	0.242358	0
34	H	0.674631	0.408697	1e-06
35	H	0.737751	0.327966	8e-06
36	H	0.592227	0.264926	0.999997
37	C	0.603318	0.398165	0
38	C	0.59267	0.408659	0.151427
39	C	0.576072	0.425023	0.088157
40	C	0.560635	0.440239	0.222811
41	C	0.561372	0.439508	0.419514
42	C	0.545513	0.45514	0.504772
43	C	0.533237	0.467244	0.370058
44	C	0.514403	0.485809	0.416804
45	C	0.508266	0.491856	0.5997
46	S	0.487416	0.512408	0.602892
47	C	0.486098	0.513711	0.357626
48	C	0.470688	0.528902	0.254918
49	C	0.468621	0.530952	0.058488
50	C	0.451864	0.547466	0.001797
51	C	0.441477	0.55769	0.156365
52	C	0.422262	0.576624	0.140787
53	C	0.412084	0.586642	0.298176
54	S	0.391841	0.606591	0.235136
55	C	0.396682	0.601835	0
56	C	0.413198	0.585564	0.966276
57	S	0.45197	0.547338	0.366533
58	C	0.501607	0.498425	0.278033
59	S	0.540925	0.45967	0.143268
60	C	0.575023	0.426062	0.891254
61	S	0.593889	0.407465	0.7848
62	H	0.596572	0.404808	0.299099
63	H	0.572606	0.428431	0.500991
64	H	0.543489	0.457132	0.657587
65	H	0.514836	0.485377	0.733531
66	H	0.478634	0.521093	0.957335
67	H	0.447905	0.551376	0.854291
68	H	0.415359	0.583406	0.447814
69	H	0.41847	0.580379	0.824512
70	H	0.503744	0.496321	0.125432
71	H	0.564209	0.436725	0.802661
72	C	0.601292	0.203505	0
73	C	0.590819	0.182514	0.151427
74	C	0.574488	0.149792	0.088157
75	C	0.559303	0.119359	0.222811
76	C	0.560033	0.120817	0.419514
77	C	0.544432	0.089554	0.504772
78	C	0.532353	0.06535	0.370058
79	C	0.513825	0.028221	0.416804
80	C	0.507791	0.016125	0.5997
81	S	0.48728	0.975023	0.602892
82	C	0.48598	0.972421	0.357626
83	C	0.470819	0.942041	0.254918
84	C	0.468774	0.937954	0.058488
85	C	0.452293	0.904923	0.001797
86	C	0.442089	0.88446	0.156365
87	C	0.423194	0.846588	0.140787
88	C	0.413197	0.826538	0.298176
89	S	0.393288	0.786636	0.235136
90	C	0.398034	0.796163	0
91	C	0.414272	0.828714	0.966276
92	S	0.45242	0.905154	0.366533
93	C	0.501235	0.002993	0.278033
94	S	0.539911	0.080502	0.143268
95	C	0.573452	0.147719	0.891254
96	S	0.59201	0.184911	0.7848
97	H	0.594662	0.190212	0.299099
98	H	0.571087	0.142966	0.500991
99	H	0.542445	0.085567	0.657587
100	H	0.514256	0.02908	0.733531
101	H	0.478613	0.957682	0.957335
102	H	0.448391	0.897111	0.854291
103	H	0.416426	0.833001	0.447814
104	H	0.419446	0.839094	0.824512
105	H	0.503334	0.007203	0.125432
106	H	0.56281	0.126397	0.802661
107	C	0.794886	0.397832	0
108	C	0.816008	0.408328	0.151427
109	C	0.848936	0.424686	0.088157
110	C	0.879559	0.439903	0.222811
111	C	0.878092	0.439176	0.419514
112	C	0.909552	0.454807	0.504772
113	C	0.933907	0.466907	0.370058
114	C	0.971269	0.485471	0.416804
115	C	0.98344	0.49152	0.5997
116	S	0.0248	0.51207	0.602892
117	C	0.027419	0.51337	0.357626
118	C	0.05799	0.528558	0.254918
119	C	0.062102	0.530595	0.058488
120	C	0.09534	0.547112	0.001797
121	C	0.115931	0.55735	0.156365
122	C	0.154041	0.57629	0.140787
123	C	0.174216	0.586321	0.298176
124	S	0.214368	0.606274	0.235136
125	C	0.204782	0.601503	0
126	C	0.172027	0.585223	0.966276
127	S	0.095107	0.547008	0.366533
128	C	0.996655	0.498083	0.278033
129	S	0.91866	0.459329	0.143268
130	C	0.851022	0.42572	0.891254
131	S	0.813597	0.407125	0.7848
132	H	0.808262	0.404481	0.299099
133	H	0.855804	0.428103	0.500991
134	H	0.913563	0.456802	0.657587
135	H	0.970405	0.485044	0.733531
136	H	0.04225	0.520726	0.957335
137	H	0.103201	0.551014	0.854291
138	H	0.167713	0.583094	0.447814
139	H	0.161581	0.580027	0.824512
140	H	0.992419	0.495977	0.125432
141	H	0.872478	0.436379	0.802661
