data_C90H36N12O6S18_2023-05-12_06:11:58
#******************************************
#
# CIF file created by Zeo++
# Zeo++ is an open source package to
# analyze microporous materials
#
#*******************************************

_cell_length_a		54.5885   
_cell_length_b		54.887   
_cell_length_c		7   
_cell_angle_alpha		90   
_cell_angle_beta		90   
_cell_angle_gamma		119.762   

_symmetry_space_group_name_H-M		'P1'
_symmetry_Int_Tables_number		1
_symmetry_cell_setting		Monoclinic

loop_
_symmetry_equiv_pos_as_xyz
'+x,+y,+z'

loop_
_atom_site_label
_atom_site_type_symbol
_atom_site_fract_x
_atom_site_fract_y
_atom_site_fract_z
1	C	0.361728	0.672606	0.999995
2	O	0.386622	0.676973	0.999991
3	C	0.339219	0.643422	0.999998
4	C	0.343583	0.621911	0
5	N	0.371449	0.626941	0
6	C	0.31043	0.638242	3e-06
7	O	0.2902	0.613088	5e-06
8	C	0.303519	0.660686	6e-06
9	C	0.277026	0.65527	5e-06
10	N	0.255123	0.626651	0
11	C	0.327111	0.689636	4e-06
12	O	0.32162	0.709045	7e-06
13	C	0.356364	0.696117	0.999999
14	C	0.377162	0.722528	0.999998
15	N	0.372989	0.745973	0
16	H	0.326352	0.60097	1e-06
17	H	0.271442	0.671346	8e-06
18	H	0.398192	0.726299	0.999997
19	C	0.638272	0.327394	0.999995
20	O	0.613378	0.323027	0.999991
21	C	0.660781	0.356578	0.999998
22	C	0.656417	0.378089	0
23	N	0.628551	0.373059	0
24	C	0.68957	0.361758	3e-06
25	O	0.7098	0.386912	5e-06
26	C	0.696481	0.339314	6e-06
27	C	0.722974	0.34473	5e-06
28	N	0.744877	0.373349	0
29	C	0.672889	0.310364	4e-06
30	O	0.67838	0.290955	7e-06
31	C	0.643636	0.303883	0.999999
32	C	0.622838	0.277472	0.999998
33	N	0.627011	0.254027	0
34	H	0.673648	0.39903	1e-06
35	H	0.728558	0.328654	8e-06
36	H	0.601808	0.273701	0.999997
37	C	0.611548	0.389849	0
38	C	0.596967	0.404248	0.001877
39	C	0.591285	0.409866	0.812433
40	C	0.574965	0.425984	0.76147
41	C	0.569541	0.431347	0.578841
42	C	0.554356	0.446343	0.577778
43	C	0.548559	0.452062	0.759599
44	C	0.53375	0.466684	0.815146
45	N	0.529644	0.470734	0.995083
46	C	0.514987	0.485208	0.0071
47	C	0.506946	0.493145	0.175499
48	C	0.492139	0.507767	0.167283
49	C	0.485021	0.5148	0.9929
50	C	0.493062	0.506863	0.824501
51	C	0.507869	0.492241	0.832717
52	S	0.520132	0.480136	0.650996
53	N	0.470363	0.529273	0.004918
54	C	0.466258	0.533324	0.184854
55	C	0.451449	0.547946	0.240401
56	C	0.445653	0.553667	0.422222
57	C	0.430468	0.568661	0.421159
58	C	0.42504	0.574022	0.23853
59	C	0.408719	0.590138	0.187567
60	C	0.398092	0.600631	0.32357
61	S	0.381468	0.617046	0.2229
62	C	0.388452	0.610151	0
63	C	0.403034	0.595753	0.998123
64	S	0.438208	0.561022	0.071139
65	S	0.479876	0.519872	0.349005
66	S	0.561797	0.438983	0.928861
67	C	0.601913	0.399374	0.67643
68	S	0.618534	0.382957	0.7771
69	H	0.590699	0.410433	0.131638
70	H	0.575942	0.425031	0.45033
71	H	0.54812	0.452506	0.447666
72	H	0.512425	0.487731	0.312124
73	H	0.487583	0.512277	0.687876
74	H	0.451892	0.547506	0.552335
75	H	0.424068	0.574979	0.54967
76	H	0.399057	0.599676	0.477369
77	H	0.4093	0.589567	0.868363
78	H	0.60095	0.400331	0.522631
79	C	0.609664	0.220157	0
80	C	0.59529	0.19136	0.001877
81	C	0.589682	0.180132	0.812433
82	C	0.573592	0.147898	0.76147
83	C	0.568238	0.137178	0.578841
84	C	0.553269	0.107188	0.577778
85	C	0.54756	0.095744	0.759599
86	C	0.532964	0.066498	0.815146
87	N	0.528921	0.058394	0.995083
88	C	0.514473	0.029447	0.0071
89	C	0.50655	0.013569	0.175499
90	C	0.491953	0.984325	0.167283
91	C	0.484933	0.970263	0.9929
92	C	0.492856	0.986141	0.824501
93	C	0.507452	0.015385	0.832717
94	S	0.519536	0.0396	0.650996
95	N	0.470485	0.941316	0.004918
96	C	0.466442	0.933212	0.184854
97	C	0.451846	0.903967	0.240401
98	C	0.446134	0.892522	0.422222
99	C	0.431166	0.862532	0.421159
100	C	0.425815	0.851812	0.23853
101	C	0.409727	0.819579	0.187567
102	C	0.399253	0.798592	0.32357
103	S	0.382867	0.765761	0.2229
104	C	0.38975	0.779553	0
105	C	0.404122	0.80835	0.998123
106	S	0.438792	0.877815	0.071139
107	S	0.479869	0.96011	0.349005
108	S	0.560616	0.121895	0.928861
109	C	0.600155	0.201118	0.67643
110	S	0.616544	0.233949	0.7771
111	H	0.589116	0.178986	0.131638
112	H	0.574544	0.149816	0.45033
113	H	0.547117	0.094867	0.447666
114	H	0.511954	0.024393	0.312124
115	H	0.487451	0.975317	0.687876
116	H	0.452284	0.904843	0.552335
117	H	0.424859	0.849895	0.54967
118	H	0.400207	0.8005	0.477369
119	H	0.410298	0.820724	0.868363
120	H	0.5992	0.19921	0.522631
121	C	0.778351	0.389559	0
122	C	0.807305	0.403957	0.001877
123	C	0.818595	0.409568	0.812433
124	C	0.851004	0.425683	0.76147
125	C	0.861783	0.43104	0.578841
126	C	0.891936	0.446034	0.577778
127	C	0.903443	0.451759	0.759599
128	C	0.932848	0.466382	0.815146
129	N	0.940997	0.470437	0.995083
130	C	0.970102	0.48491	0.0071
131	C	0.986067	0.492851	0.175499
132	C	0.01547	0.507473	0.167283
133	C	0.029608	0.514502	0.9929
134	C	0.013644	0.506561	0.824501
135	C	0.98424	0.491939	0.832717
136	S	0.959894	0.47983	0.650996
137	N	0.058714	0.528975	0.004918
138	C	0.066862	0.53303	0.184854
139	C	0.096267	0.547653	0.240401
140	C	0.107774	0.553376	0.422222
141	C	0.137928	0.568371	0.421159
142	C	0.148706	0.573731	0.23853
143	C	0.181116	0.589848	0.187567
144	C	0.202217	0.600342	0.32357
145	S	0.235227	0.616758	0.2229
146	C	0.22136	0.609861	0
147	C	0.192406	0.595462	0.998123
148	S	0.122562	0.560728	0.071139
149	S	0.039817	0.519582	0.349005
150	S	0.877149	0.438687	0.928861
151	C	0.797493	0.399072	0.67643
152	S	0.764484	0.38266	0.7771
153	H	0.819747	0.410146	0.131638
154	H	0.849076	0.424719	0.45033
155	H	0.904325	0.452192	0.447666
156	H	0.975183	0.487441	0.312124
157	H	0.024527	0.511971	0.687876
158	H	0.095386	0.547216	0.552335
159	H	0.150634	0.574691	0.54967
160	H	0.200298	0.599389	0.477369
161	H	0.179964	0.589274	0.868363
162	H	0.799413	0.400024	0.522631
