data_C96H48N6O6S12_2023-05-12_15:10:35
#******************************************
#
# CIF file created by Zeo++
# Zeo++ is an open source package to
# analyze microporous materials
#
#*******************************************

_cell_length_a		49.3908   
_cell_length_b		49.6893   
_cell_length_c		7   
_cell_angle_alpha		90   
_cell_angle_beta		90   
_cell_angle_gamma		119.738   

_symmetry_space_group_name_H-M		'P1'
_symmetry_Int_Tables_number		1
_symmetry_cell_setting		Monoclinic

loop_
_symmetry_equiv_pos_as_xyz
'+x,+y,+z'

loop_
_atom_site_label
_atom_site_type_symbol
_atom_site_fract_x
_atom_site_fract_y
_atom_site_fract_z
1	C	0.364713	0.673225	0.999995
2	O	0.392224	0.678048	0.999991
3	C	0.339851	0.640997	0.999998
4	C	0.344687	0.617241	0
5	N	0.375483	0.622797	0
6	C	0.308035	0.635276	3e-06
7	O	0.285691	0.607499	5e-06
8	C	0.300385	0.660062	6e-06
9	C	0.271107	0.654081	5e-06
10	N	0.246915	0.622476	0
11	C	0.326443	0.692033	4e-06
12	O	0.320363	0.713466	7e-06
13	C	0.358771	0.69919	0.999999
14	C	0.381743	0.728356	0.999998
15	N	0.377118	0.754247	0
16	H	0.325654	0.594116	1e-06
17	H	0.264926	0.671834	8e-06
18	H	0.404984	0.732521	0.999997
19	C	0.635287	0.326775	0.999995
20	O	0.607776	0.321952	0.999991
21	C	0.660149	0.359003	0.999998
22	C	0.655313	0.382759	0
23	N	0.624517	0.377203	0
24	C	0.691965	0.364724	3e-06
25	O	0.714309	0.392501	5e-06
26	C	0.699615	0.339938	6e-06
27	C	0.728893	0.345919	5e-06
28	N	0.753085	0.377524	0
29	C	0.673557	0.307967	4e-06
30	O	0.679637	0.286534	7e-06
31	C	0.641229	0.30081	0.999999
32	C	0.618257	0.271644	0.999998
33	N	0.622882	0.245753	0
34	H	0.674346	0.405884	1e-06
35	H	0.735074	0.328166	8e-06
36	H	0.595016	0.267479	0.999997
37	C	0.605716	0.395745	0
38	C	0.625324	0.426702	0.967501
39	S	0.605506	0.446757	0.973581
40	C	0.570415	0.413811	0.019091
41	C	0.541502	0.414198	0.044362
42	C	0.515414	0.392606	0.143164
43	C	0.490576	0.399445	0.141011
44	C	0.498209	0.42605	0.039653
45	C	0.479196	0.440712	0.004454
46	C	0.462313	0.433417	0.832928
47	C	0.443558	0.446145	0.791588
48	C	0.441435	0.466227	0.921751
49	C	0.457946	0.474264	0.096847
50	C	0.456028	0.494816	0.231097
51	C	0.436378	0.508849	0.19864
52	C	0.405322	0.49713	0.242392
53	C	0.394486	0.517894	0.189899
54	C	0.417436	0.544957	0.106864
55	C	0.414004	0.570679	0.039457
56	C	0.391168	0.577613	0.094181
57	C	0.394284	0.604255	0
58	C	0.418945	0.61729	0.875769
59	S	0.438547	0.597009	0.872621
60	S	0.452095	0.54471	0.096323
61	C	0.472853	0.502049	0.402848
62	C	0.491707	0.489428	0.443819
63	C	0.493826	0.469353	0.313611
64	C	0.477222	0.461223	0.138818
65	S	0.535063	0.442338	0.947837
66	C	0.574312	0.388078	0.02986
67	H	0.650172	0.438644	0.940904
68	H	0.514068	0.372736	0.215929
69	H	0.468264	0.385562	0.210742
70	H	0.463861	0.417747	0.730632
71	H	0.430627	0.440563	0.658194
72	H	0.426566	0.475827	0.883735
73	H	0.391046	0.47474	0.309048
74	H	0.370712	0.512865	0.211639
75	H	0.373183	0.564184	0.197864
76	H	0.42651	0.637552	0.786627
77	H	0.471328	0.517744	0.505052
78	H	0.504849	0.495218	0.576469
79	H	0.509013	0.460073	0.350531
80	H	0.555372	0.364843	0.057466
81	C	0.603727	0.208349	0
82	C	0.572562	0.196996	0.967501
83	S	0.552543	0.157399	0.973581
84	C	0.585787	0.155383	0.019091
85	C	0.58555	0.126333	0.044362
86	C	0.607353	0.121949	0.143164
87	C	0.600622	0.090522	0.141011
88	C	0.573887	0.071624	0.039653
89	C	0.559275	0.038191	0.004454
90	C	0.566684	0.02871	0.832928
91	C	0.554011	0.997455	0.791588
92	C	0.533872	0.975375	0.921751
93	C	0.525721	0.983749	0.096847
94	C	0.50511	0.961404	0.231097
95	C	0.491132	0.927964	0.19864
96	C	0.503055	0.908833	0.242392
97	C	0.482278	0.877436	0.189899
98	C	0.455002	0.873268	0.106864
99	C	0.42921	0.844278	0.039457
100	C	0.422373	0.814743	0.094181
101	C	0.395624	0.791331	0
102	C	0.382414	0.802812	0.875769
103	S	0.402661	0.84242	0.872621
104	S	0.455066	0.907874	0.096323
105	C	0.497763	0.970888	0.402848
106	C	0.510328	0.002135	0.443819
107	C	0.530459	0.024204	0.313611
108	C	0.538705	0.015831	0.138818
109	S	0.557349	0.091959	0.947837
110	C	0.611587	0.184844	0.02986
111	H	0.560449	0.20975	0.940904
112	H	0.627298	0.140379	0.215929
113	H	0.61467	0.082212	0.210742
114	H	0.582399	0.045832	0.730632
115	H	0.559681	0.990189	0.658194
116	H	0.524318	0.951085	0.883735
117	H	0.525597	0.916952	0.309048
118	H	0.487449	0.858869	0.211639
119	H	0.435942	0.81027	0.197864
120	H	0.362043	0.790157	0.786627
121	H	0.482023	0.953765	0.505052
122	H	0.504448	0.009403	0.576469
123	H	0.539691	0.048492	0.350531
124	H	0.635	0.189179	0.057466
125	C	0.790073	0.395425	0
126	C	0.80163	0.375822	0.967501
127	S	0.841466	0.395364	0.973581
128	C	0.843314	0.430326	0.019091
129	C	0.872464	0.458988	0.044362
130	C	0.876748	0.484965	0.143164
131	C	0.908317	0.509552	0.141011
132	C	0.92742	0.501845	0.039653
133	C	0.961045	0.520617	0.004454
134	C	0.970519	0.537393	0.832928
135	C	0.001947	0.555919	0.791588
136	C	0.024208	0.557918	0.921751
137	C	0.015848	0.541506	0.096847
138	C	0.038379	0.5433	0.231097
139	C	0.072006	0.562707	0.19864
140	C	0.091139	0.593557	0.242392
141	C	0.122752	0.60419	0.189899
142	C	0.127078	0.581295	0.106864
143	C	0.156302	0.584562	0.039457
144	C	0.185975	0.607164	0.094181
145	C	0.209607	0.603934	0
146	C	0.198157	0.579418	0.875769
147	S	0.158307	0.560091	0.872621
148	S	0.092355	0.546936	0.096323
149	C	0.0289	0.526582	0.402848
150	C	0.997481	0.507956	0.443819
151	C	0.975231	0.505962	0.313611
152	C	0.983589	0.522465	0.138818
153	S	0.907104	0.465223	0.947837
154	C	0.813617	0.426598	0.02986
155	H	0.788895	0.351126	0.940904
156	H	0.85815	0.486404	0.215929
157	H	0.916581	0.531745	0.210742
158	H	0.953255	0.535941	0.730632
159	H	0.009208	0.568768	0.658194
160	H	0.048631	0.572608	0.883735
161	H	0.082873	0.607828	0.309048
162	H	0.141355	0.627785	0.211639
163	H	0.190391	0.625065	0.197864
164	H	0.210962	0.57181	0.786627
165	H	0.046165	0.528011	0.505052
166	H	0.990219	0.494898	0.576469
167	H	0.950812	0.490955	0.350531
168	H	0.809143	0.445498	0.057466
