data_C63H39N9O6_2023-05-11_06:44:49
#******************************************
#
# CIF file created by Zeo++
# Zeo++ is an open source package to
# analyze microporous materials
#
#*******************************************

_cell_length_a		35.63   
_cell_length_b		35.9286   
_cell_length_c		7   
_cell_angle_alpha		90   
_cell_angle_beta		90   
_cell_angle_gamma		119.637   

_symmetry_space_group_name_H-M		'P1'
_symmetry_Int_Tables_number		1
_symmetry_cell_setting		Monoclinic

loop_
_symmetry_equiv_pos_as_xyz
'+x,+y,+z'

loop_
_atom_site_label
_atom_site_type_symbol
_atom_site_fract_x
_atom_site_fract_y
_atom_site_fract_z
1	C	0.376813	0.675728	0.999995
2	O	0.414936	0.682391	0.999991
3	C	0.34244	0.631201	0.999998
4	C	0.349211	0.59838	0
5	N	0.391885	0.606055	0
6	C	0.298353	0.623297	3e-06
7	O	0.267457	0.584919	5e-06
8	C	0.287678	0.657541	6e-06
9	C	0.247109	0.649278	5e-06
10	N	0.213663	0.605612	0
11	C	0.323711	0.701713	4e-06
12	O	0.315222	0.731326	7e-06
13	C	0.368504	0.711601	0.999999
14	C	0.400265	0.751898	0.999998
15	N	0.393782	0.787669	0
16	H	0.322892	0.566429	1e-06
17	H	0.238491	0.673806	8e-06
18	H	0.432471	0.757652	0.999997
19	C	0.623187	0.324272	0.999995
20	O	0.585064	0.317609	0.999991
21	C	0.65756	0.368799	0.999998
22	C	0.650789	0.40162	0
23	N	0.608115	0.393945	0
24	C	0.701647	0.376703	3e-06
25	O	0.732543	0.415081	5e-06
26	C	0.712322	0.342459	6e-06
27	C	0.752891	0.350722	5e-06
28	N	0.786337	0.394388	0
29	C	0.676289	0.298287	4e-06
30	O	0.684778	0.268674	7e-06
31	C	0.631496	0.288399	0.999999
32	C	0.599735	0.248102	0.999998
33	N	0.606218	0.212331	0
34	H	0.677108	0.433571	1e-06
35	H	0.761509	0.326194	8e-06
36	H	0.567529	0.242348	0.999997
37	C	0.418	0.580437	0
38	C	0.416642	0.581767	0.190697
39	C	0.439186	0.559653	0.274234
40	C	0.453506	0.545609	0.098281
41	C	0.477448	0.522123	0.106221
42	C	0.488694	0.51109	0.27982
43	C	0.511526	0.488694	0.283576
44	C	0.522991	0.477448	0.112345
45	C	0.546843	0.45405	0.105171
46	C	0.559302	0.441828	0.946833
47	C	0.582	0.419563	0
48	C	0.583794	0.417803	0.190599
49	C	0.56142	0.439751	0.278223
50	N	0.5126	0.487641	0.942028
51	C	0.49044	0.509379	0.942927
52	C	0.440593	0.558276	0.942589
53	H	0.40177	0.596355	0.273328
54	H	0.466733	0.582008	0.361118
55	H	0.416764	0.53227	0.361113
56	H	0.480054	0.519566	0.415373
57	H	0.519854	0.480524	0.420265
58	H	0.553416	0.447602	0.801342
59	H	0.598859	0.403025	0.270475
60	H	0.584018	0.466942	0.36556
61	H	0.534069	0.417225	0.365563
62	H	0.483389	0.516295	0.800552
63	H	0.445602	0.553364	0.794758
64	C	0.41933	0.838905	0
65	C	0.418004	0.836242	0.190697
66	C	0.440058	0.880471	0.274234
67	C	0.454065	0.908562	0.098281
68	C	0.477487	0.955534	0.106221
69	C	0.488489	0.977598	0.27982
70	C	0.510825	0.022391	0.283576
71	C	0.52204	0.044883	0.112345
72	C	0.545375	0.091679	0.105171
73	C	0.557564	0.116123	0.946833
74	C	0.579769	0.160654	0
75	C	0.581525	0.164173	0.190599
76	C	0.559636	0.120278	0.278223
77	N	0.511876	0.024498	0.942028
78	C	0.490196	0.981022	0.942927
79	C	0.441431	0.883228	0.942589
80	H	0.403456	0.807066	0.273328
81	H	0.417397	0.885499	0.361118
82	H	0.467734	0.885499	0.361113
83	H	0.480037	0.960647	0.415373
84	H	0.518973	0.038731	0.420265
85	H	0.551806	0.104575	0.801342
86	H	0.596262	0.193729	0.270475
87	H	0.532152	0.115614	0.36556
88	H	0.582468	0.115614	0.365563
89	H	0.483299	0.967189	0.800552
90	H	0.44633	0.893053	0.794758
91	C	0.161999	0.579994	0
92	C	0.164683	0.581327	0.190697
93	C	0.120085	0.559212	0.274234
94	C	0.091759	0.545166	0.098281
95	C	0.044394	0.521679	0.106221
96	C	0.022145	0.510647	0.27982
97	C	0.976978	0.488251	0.283576
98	C	0.954298	0.477005	0.112345
99	C	0.907111	0.453607	0.105171
100	C	0.882462	0.441385	0.946833
101	C	0.83756	0.41912	0
102	C	0.83401	0.41736	0.190599
103	C	0.878273	0.439307	0.278223
104	N	0.974853	0.487197	0.942028
105	C	0.018693	0.508936	0.942927
106	C	0.117305	0.557832	0.942589
107	H	0.194104	0.595915	0.273328
108	H	0.115199	0.53183	0.361118
109	H	0.114831	0.581567	0.361113
110	H	0.039239	0.519123	0.415373
111	H	0.960502	0.480081	0.420265
112	H	0.894108	0.447159	0.801342
113	H	0.804208	0.402583	0.270475
114	H	0.883159	0.416781	0.36556
115	H	0.882793	0.466498	0.365563
116	H	0.032642	0.515852	0.800552
117	H	0.107398	0.552919	0.794758
