data_C108H48N6O6S24_2023-05-15_18:45:14
#******************************************
#
# CIF file created by Zeo++
# Zeo++ is an open source package to
# analyze microporous materials
#
#*******************************************

_cell_length_a		63.3866   
_cell_length_b		63.685   
_cell_length_c		7   
_cell_angle_alpha		90   
_cell_angle_beta		90   
_cell_angle_gamma		119.795   

_symmetry_space_group_name_H-M		'P1'
_symmetry_Int_Tables_number		1
_symmetry_cell_setting		Monoclinic

loop_
_symmetry_equiv_pos_as_xyz
'+x,+y,+z'

loop_
_atom_site_label
_atom_site_type_symbol
_atom_site_fract_x
_atom_site_fract_y
_atom_site_fract_z
1	C	0.35779	0.671787	0.999995
2	O	0.379232	0.675552	0.999991
3	C	0.338389	0.646626	0.999998
4	C	0.342135	0.628081	0
5	N	0.366136	0.632418	0
6	C	0.313592	0.642161	3e-06
7	O	0.296157	0.620475	5e-06
8	C	0.307654	0.66151	6e-06
9	C	0.284835	0.656841	5e-06
10	N	0.265956	0.632168	0
11	C	0.327988	0.68647	4e-06
12	O	0.32327	0.703203	7e-06
13	C	0.353184	0.692057	0.999999
14	C	0.37111	0.714827	0.999998
15	N	0.36753	0.735039	0
16	H	0.327284	0.610027	1e-06
17	H	0.280035	0.670701	8e-06
18	H	0.389224	0.718078	0.999997
19	C	0.64221	0.328213	0.999995
20	O	0.620768	0.324448	0.999991
21	C	0.661611	0.353374	0.999998
22	C	0.657865	0.371919	0
23	N	0.633864	0.367582	0
24	C	0.686408	0.357839	3e-06
25	O	0.703843	0.379525	5e-06
26	C	0.692346	0.33849	6e-06
27	C	0.715165	0.343159	5e-06
28	N	0.734044	0.367832	0
29	C	0.672012	0.31353	4e-06
30	O	0.67673	0.296797	7e-06
31	C	0.646816	0.307943	0.999999
32	C	0.62889	0.285173	0.999998
33	N	0.63247	0.264961	0
34	H	0.672716	0.389973	1e-06
35	H	0.719965	0.329299	8e-06
36	H	0.610776	0.281922	0.999997
37	C	0.38077	0.617943	0
38	C	0.386551	0.603856	0.888596
39	C	0.398389	0.593804	0.998374
40	C	0.401199	0.600583	0.189248
41	C	0.412293	0.593852	0.340882
42	C	0.415689	0.601137	0.52988
43	C	0.427296	0.590859	0.639501
44	C	0.43273	0.575871	0.533186
45	C	0.444306	0.562601	0.601941
46	C	0.446065	0.556993	0.789994
47	C	0.45878	0.543886	0.810691
48	C	0.466557	0.539592	0.638145
49	C	0.480131	0.527024	0.610146
50	C	0.495182	0.525104	0.74356
51	C	0.505644	0.51134	0.67209
52	C	0.498483	0.503197	0.490771
53	C	0.508966	0.489456	0.419194
54	C	0.524135	0.487583	0.551933
55	C	0.537905	0.475077	0.528973
56	C	0.550464	0.470121	0.666648
57	C	0.562025	0.457488	0.59271
58	C	0.558233	0.452891	0.399033
59	C	0.567128	0.440546	0.277101
60	C	0.564434	0.437082	0.081679
61	C	0.575591	0.424034	0.008367
62	C	0.586725	0.417615	0.148305
63	C	0.599732	0.404377	0.126455
64	C	0.610572	0.397576	0.267264
65	C	0.621875	0.38464	0.194106
66	C	0.61923	0.382057	0
67	S	0.603633	0.394719	0.905774
68	S	0.583305	0.427721	0.367231
69	S	0.54053	0.46414	0.311299
70	S	0.525543	0.502406	0.762119
71	S	0.478524	0.512076	0.400773
72	S	0.4584	0.551864	0.454068
73	S	0.4234	0.574521	0.301327
74	S	0.389203	0.619264	0.230668
75	H	0.382659	0.600763	0.73732
76	H	0.40452	0.582097	0.937853
77	H	0.410197	0.613383	0.589566
78	H	0.431518	0.594598	0.789878
79	H	0.438454	0.561855	0.909191
80	H	0.461807	0.53778	0.947069
81	H	0.498807	0.533137	0.88457
82	H	0.505285	0.481532	0.277738
83	H	0.551488	0.475181	0.815555
84	H	0.572656	0.452151	0.680355
85	H	0.554903	0.443552	0.992279
86	H	0.575266	0.419694	0.85835
87	H	0.610528	0.401599	0.417616
88	H	0.631292	0.377775	0.280506
89	C	0.381984	0.76399	0
90	C	0.396083	0.783761	0.888596
91	C	0.406113	0.805529	0.998374
92	C	0.399305	0.801569	0.189248
93	C	0.406008	0.819292	0.340882
94	C	0.39869	0.81541	0.52988
95	C	0.408947	0.837175	0.639501
96	C	0.423953	0.8575	0.533186
97	C	0.43721	0.882213	0.601941
98	C	0.442826	0.889544	0.789994
99	C	0.455915	0.915227	0.810691
100	C	0.460188	0.927228	0.638145
101	C	0.472733	0.953227	0.610146
102	C	0.474597	0.970089	0.74356
103	C	0.488354	0.994188	0.67209
104	C	0.496549	0.995185	0.490771
105	C	0.510282	0.019281	0.419194
106	C	0.512098	0.036214	0.551933
107	C	0.524581	0.062346	0.528973
108	C	0.529498	0.079756	0.666648
109	C	0.542116	0.103819	0.59271
110	C	0.546742	0.104631	0.399033
111	C	0.559082	0.125761	0.277101
112	C	0.562567	0.126535	0.081679
113	C	0.575603	0.150611	0.008367
114	C	0.581993	0.168062	0.148305
115	C	0.595213	0.194165	0.126455
116	C	0.601987	0.211705	0.267264
117	C	0.61491	0.235814	0.194106
118	C	0.617511	0.23576	0
119	S	0.60488	0.207658	0.905774
120	S	0.571874	0.154601	0.367231
121	S	0.535536	0.075845	0.311299
122	S	0.49723	0.02285	0.762119
123	S	0.487728	0.966518	0.400773
124	S	0.447917	0.906905	0.454068
125	S	0.425345	0.849576	0.301327
126	S	0.380624	0.771051	0.230668
127	H	0.399201	0.782976	0.73732
128	H	0.417827	0.823279	0.937853
129	H	0.386434	0.797759	0.589566
130	H	0.405181	0.837645	0.789878
131	H	0.437983	0.877143	0.909191
132	H	0.462024	0.924315	0.947069
133	H	0.466528	0.96569	0.88457
134	H	0.518243	0.023517	0.277738
135	H	0.52442	0.075734	0.815555
136	H	0.547424	0.119694	0.680355
137	H	0.556118	0.110624	0.992279
138	H	0.579956	0.15461	0.85835
139	H	0.597954	0.207655	0.417616
140	H	0.621756	0.252006	0.280506
141	C	0.236869	0.617692	0
142	C	0.216988	0.612008	0.888596
143	C	0.195121	0.600291	0.998374
144	C	0.199119	0.597472	0.189248
145	C	0.181322	0.586481	0.340882
146	C	0.185244	0.583077	0.52988
147	C	0.163379	0.571591	0.639501
148	C	0.142939	0.566254	0.533186
149	C	0.118106	0.554811	0.601941
150	C	0.110732	0.553088	0.789994
151	C	0.084928	0.540512	0.810691
152	C	0.072877	0.532804	0.638145
153	C	0.046758	0.519374	0.610146
154	C	0.029844	0.504432	0.74356
155	C	0.005624	0.494097	0.67209
156	C	0.004591	0.501244	0.490771
157	C	0.980374	0.490887	0.419194
158	C	0.963389	0.475828	0.551933
159	C	0.937136	0.462202	0.528973
160	C	0.919661	0.449748	0.666648
161	C	0.895481	0.438317	0.59271
162	C	0.894648	0.442103	0.399033
163	C	0.873412	0.433318	0.277101
164	C	0.872622	0.436008	0.081679
165	C	0.848428	0.42498	0.008367
166	C	0.830905	0.413948	0.148305
167	C	0.804678	0.401083	0.126455
168	C	0.787064	0.390344	0.267264
169	C	0.762837	0.37917	0.194106
170	C	0.762881	0.381807	0
171	S	0.79111	0.397248	0.905774
172	S	0.844443	0.417303	0.367231
173	S	0.923557	0.45964	0.311299
174	S	0.976849	0.474368	0.762119
175	S	0.03337	0.521031	0.400773
176	S	0.093305	0.540856	0.454068
177	S	0.150878	0.575528	0.301327
178	S	0.229796	0.60931	0.230668
179	H	0.217762	0.615886	0.73732
180	H	0.177276	0.594249	0.937853
181	H	0.202992	0.588482	0.589566
182	H	0.162924	0.567382	0.789878
183	H	0.123186	0.560627	0.909191
184	H	0.075791	0.53753	0.947069
185	H	0.034288	0.500798	0.88457
186	H	0.976095	0.494576	0.277738
187	H	0.923714	0.44871	0.815555
188	H	0.879543	0.42778	0.680355
189	H	0.888601	0.445448	0.992279
190	H	0.844401	0.425321	0.85835
191	H	0.791141	0.39037	0.417616
192	H	0.746575	0.369844	0.280506
