data_C72H36N6O6S12_2023-05-13_11:04:27
#******************************************
#
# CIF file created by Zeo++
# Zeo++ is an open source package to
# analyze microporous materials
#
#*******************************************

_cell_length_a		38.363   
_cell_length_b		38.6616   
_cell_length_c		7   
_cell_angle_alpha		90   
_cell_angle_beta		90   
_cell_angle_gamma		119.663   

_symmetry_space_group_name_H-M		'P1'
_symmetry_Int_Tables_number		1
_symmetry_cell_setting		Monoclinic

loop_
_symmetry_equiv_pos_as_xyz
'+x,+y,+z'

loop_
_atom_site_label
_atom_site_type_symbol
_atom_site_fract_x
_atom_site_fract_y
_atom_site_fract_z
1	C	0.37372	0.67509	0.999995
2	O	0.409131	0.681283	0.999991
3	C	0.341774	0.633699	0.999998
4	C	0.348047	0.603191	0
5	N	0.387684	0.610325	0
6	C	0.300824	0.626353	3e-06
7	O	0.272111	0.590678	5e-06
8	C	0.290926	0.658184	6e-06
9	C	0.253243	0.650503	5e-06
10	N	0.222159	0.609914	0
11	C	0.324413	0.699244	4e-06
12	O	0.316544	0.726771	7e-06
13	C	0.36602	0.708435	0.999999
14	C	0.395538	0.745893	0.999998
15	N	0.389534	0.779144	0
16	H	0.323588	0.573491	1e-06
17	H	0.245251	0.673303	8e-06
18	H	0.425452	0.751242	0.999997
19	C	0.62628	0.32491	0.999995
20	O	0.590869	0.318717	0.999991
21	C	0.658226	0.366301	0.999998
22	C	0.651953	0.396809	0
23	N	0.612316	0.389675	0
24	C	0.699176	0.373647	3e-06
25	O	0.727889	0.409322	5e-06
26	C	0.709074	0.341816	6e-06
27	C	0.746757	0.349497	5e-06
28	N	0.777841	0.390086	0
29	C	0.675587	0.300756	4e-06
30	O	0.683456	0.273229	7e-06
31	C	0.63398	0.291565	0.999999
32	C	0.604462	0.254107	0.999998
33	N	0.610466	0.220856	0
34	H	0.676412	0.426509	1e-06
35	H	0.754749	0.326697	8e-06
36	H	0.574548	0.248758	0.999997
37	C	0.411927	0.586512	0
38	C	0.388516	0.554593	0.885477
39	S	0.387554	0.512449	0.966521
40	C	0.418694	0.536994	0.156762
41	C	0.43055	0.51639	0.292634
42	C	0.423664	0.477788	0.283408
43	C	0.439663	0.467318	0.443032
44	C	0.459211	0.498126	0.571857
45	C	0.479043	0.500378	0.747543
46	C	0.501188	0.483094	0.786553
47	C	0.510514	0.460582	0.656714
48	C	0.499357	0.420754	0.666395
49	C	0.514906	0.408414	0.511957
50	C	0.53831	0.439144	0.388096
51	C	0.558492	0.436495	0.218475
52	C	0.569044	0.407704	0.179937
53	C	0.588073	0.413488	0
54	C	0.591787	0.445939	0.903254
55	S	0.571985	0.469715	0.03165
56	S	0.541687	0.482847	0.465187
57	S	0.456225	0.539043	0.49801
58	C	0.429312	0.576896	0.155161
59	H	0.371973	0.553724	0.758826
60	H	0.407832	0.457407	0.167604
61	H	0.436843	0.438213	0.460789
62	H	0.476045	0.518059	0.860748
63	H	0.513588	0.486653	0.929636
64	H	0.480369	0.401076	0.778274
65	H	0.508797	0.378107	0.493325
66	H	0.563533	0.383791	0.277534
67	H	0.604994	0.456984	0.76446
68	H	0.448788	0.59824	0.260563
69	C	0.413287	0.82677	0
70	C	0.445504	0.835321	0.885477
71	S	0.48784	0.876229	0.966521
72	C	0.462976	0.882645	0.156762
73	C	0.483591	0.914835	0.292634
74	C	0.522409	0.946365	0.283408
75	C	0.532816	0.972585	0.443032
76	C	0.501741	0.961319	0.571857
77	C	0.499344	0.978694	0.747543
78	C	0.516554	0.01776	0.786553
79	C	0.539102	0.049344	0.656714
80	C	0.57918	0.077868	0.666395
81	C	0.591468	0.105501	0.511957
82	C	0.560445	0.098125	0.388096
83	C	0.562969	0.120715	0.218475
84	C	0.591816	0.159746	0.179937
85	C	0.585877	0.172819	0
86	C	0.553258	0.144261	0.903254
87	S	0.529512	0.101062	0.03165
88	S	0.516527	0.058057	0.465187
89	S	0.460664	0.917726	0.49801
90	C	0.422828	0.853514	0.155161
91	H	0.44649	0.819824	0.758826
92	H	0.542986	0.950951	0.167604
93	H	0.562068	0.998704	0.460789
94	H	0.481607	0.958168	0.860748
95	H	0.512896	0.026489	0.929636
96	H	0.599073	0.078635	0.778274
97	H	0.62195	0.129562	0.493325
98	H	0.61587	0.178047	0.277534
99	H	0.542075	0.146351	0.76446
100	H	0.401258	0.851575	0.260563
101	C	0.174163	0.586101	0
102	C	0.165356	0.609469	0.885477
103	S	0.123982	0.610705	0.966521
104	C	0.117706	0.579744	0.156762
105	C	0.085236	0.568159	0.292634
106	C	0.053304	0.57523	0.283408
107	C	0.026898	0.559479	0.443032
108	C	0.038425	0.539938	0.571857
109	C	0.020989	0.520311	0.747543
110	C	0.981635	0.498529	0.786553
111	C	0.949761	0.489458	0.656714
112	C	0.92084	0.500761	0.666395
113	C	0.893002	0.485468	0.511957
114	C	0.900621	0.462115	0.388096
115	C	0.877915	0.442174	0.218475
116	C	0.838517	0.431934	0.179937
117	C	0.825426	0.413076	0
118	C	0.854331	0.409183	0.903254
119	S	0.89788	0.428605	0.03165
120	S	0.941162	0.458479	0.465187
121	S	0.082487	0.542614	0.49801
122	C	0.147237	0.568973	0.155161
123	H	0.180914	0.625835	0.758826
124	H	0.048559	0.591025	0.167604
125	H	0.000466	0.562466	0.460789
126	H	0.041726	0.523156	0.860748
127	H	0.972894	0.486241	0.929636
128	H	0.919935	0.519672	0.778274
129	H	0.86863	0.491715	0.493325
130	H	0.819973	0.437545	0.277534
131	H	0.852308	0.396048	0.76446
132	H	0.149331	0.549568	0.260563
