data_C102H48N12O6S18_2023-05-12_11:59:58
#******************************************
#
# CIF file created by Zeo++
# Zeo++ is an open source package to
# analyze microporous materials
#
#*******************************************

_cell_length_a		58.914   
_cell_length_b		59.2124   
_cell_length_c		7   
_cell_angle_alpha		90   
_cell_angle_beta		90   
_cell_angle_gamma		119.78   

_symmetry_space_group_name_H-M		'P1'
_symmetry_Int_Tables_number		1
_symmetry_cell_setting		Monoclinic

loop_
_symmetry_equiv_pos_as_xyz
'+x,+y,+z'

loop_
_atom_site_label
_atom_site_type_symbol
_atom_site_fract_x
_atom_site_fract_y
_atom_site_fract_z
1	C	0.359645	0.672173	0.999995
2	O	0.382713	0.676221	0.999991
3	C	0.338779	0.645116	0.999998
4	C	0.342816	0.625173	0
5	N	0.368638	0.629837	0
6	C	0.312102	0.640314	3e-06
7	O	0.29335	0.616994	5e-06
8	C	0.305706	0.661122	6e-06
9	C	0.281156	0.6561	5e-06
10	N	0.260852	0.629568	0
11	C	0.327575	0.687962	4e-06
12	O	0.322494	0.705956	7e-06
13	C	0.354683	0.69397	0.999999
14	C	0.373962	0.718456	0.999998
15	N	0.370103	0.740192	0
16	H	0.326843	0.605758	1e-06
17	H	0.275987	0.671005	8e-06
18	H	0.393449	0.721953	0.999997
19	C	0.640355	0.327827	0.999995
20	O	0.617287	0.323779	0.999991
21	C	0.661221	0.354884	0.999998
22	C	0.657184	0.374827	0
23	N	0.631362	0.370163	0
24	C	0.687898	0.359686	3e-06
25	O	0.70665	0.383006	5e-06
26	C	0.694294	0.338878	6e-06
27	C	0.718844	0.3439	5e-06
28	N	0.739148	0.370432	0
29	C	0.672425	0.312038	4e-06
30	O	0.677506	0.294044	7e-06
31	C	0.645317	0.30603	0.999999
32	C	0.626038	0.281544	0.999998
33	N	0.629897	0.259808	0
34	H	0.673157	0.394242	1e-06
35	H	0.724013	0.328995	8e-06
36	H	0.606551	0.278047	0.999997
37	C	0.384387	0.61427	0
38	C	0.392347	0.606377	0.157651
39	C	0.405976	0.593033	0.103909
40	C	0.40791	0.59124	0.907483
41	C	0.420306	0.579131	0.802826
42	C	0.422269	0.577377	0.606854
43	C	0.435886	0.564016	0.553278
44	C	0.444031	0.55585	0.709722
45	C	0.459564	0.540559	0.700169
46	C	0.46663	0.533748	0.53171
47	S	0.483259	0.517333	0.569027
48	C	0.481377	0.518971	0.81311
49	C	0.492745	0.50766	0.942588
50	C	0.505879	0.494724	0.8852
51	N	0.51613	0.484516	0.0096
52	C	0.512951	0.487532	0.198117
53	C	0.524315	0.476214	0.327576
54	C	0.537552	0.463118	0.279153
55	C	0.546085	0.454582	0.44049
56	C	0.561562	0.439236	0.430859
57	C	0.569717	0.431069	0.587232
58	C	0.583266	0.417651	0.533433
59	C	0.585179	0.415848	0.337396
60	C	0.597704	0.403474	0.237407
61	C	0.610188	0.391222	0.319552
62	C	0.620571	0.380936	0.182143
63	C	0.615613	0.38573	0
64	S	0.598959	0.402119	0.991745
65	S	0.570277	0.430693	0.222522
66	C	0.53908	0.461452	0.60896
67	S	0.522495	0.477912	0.571671
68	C	0.499817	0.500468	0.255498
69	N	0.489562	0.51068	0.131137
70	C	0.468089	0.532018	0.861515
71	S	0.435235	0.564325	0.918071
72	S	0.392892	0.606039	0.791798
73	H	0.38877	0.609808	0.303653
74	H	0.413947	0.585157	0.206808
75	H	0.414346	0.585275	0.503793
76	H	0.439293	0.560795	0.406439
77	H	0.46298	0.537471	0.387041
78	H	0.508812	0.491921	0.736093
79	H	0.540853	0.459911	0.131691
80	H	0.56635	0.434336	0.734057
81	H	0.591184	0.40974	0.636287
82	H	0.611945	0.389568	0.472239
83	H	0.630986	0.3707	0.216972
84	H	0.542749	0.457747	0.753615
85	H	0.496884	0.503263	0.404615
86	H	0.464749	0.535178	0.008966
87	C	0.385644	0.771325	0
88	C	0.393525	0.787086	0.157651
89	C	0.406847	0.813901	0.103909
90	C	0.408636	0.817606	0.907483
91	C	0.420725	0.841968	0.802826
92	C	0.422475	0.845663	0.606854
93	C	0.435814	0.872483	0.553278
94	C	0.443967	0.888698	0.709722
95	C	0.459233	0.919343	0.700169
96	C	0.466032	0.933138	0.53171
97	S	0.48242	0.965989	0.569027
98	C	0.480785	0.96249	0.81311
99	C	0.492078	0.985037	0.942588
100	C	0.504993	0.010955	0.8852
101	N	0.515185	0.031294	0.0096
102	C	0.512174	0.025136	0.198117
103	C	0.523474	0.047685	0.327576
104	C	0.536549	0.073864	0.279153
105	C	0.545071	0.090834	0.44049
106	C	0.560393	0.121478	0.430859
107	C	0.568547	0.137704	0.587232
108	C	0.581943	0.164513	0.533433
109	C	0.583743	0.168208	0.337396
110	C	0.596096	0.192961	0.237407
111	C	0.608328	0.217553	0.319552
112	C	0.618598	0.238101	0.182143
113	C	0.613812	0.228406	0
114	S	0.59745	0.195556	0.991745
115	S	0.568921	0.138634	0.222522
116	C	0.538213	0.07704	0.60896
117	S	0.521779	0.044188	0.571671
118	C	0.49926	0.999217	0.255498
119	N	0.489064	0.97887	0.131137
120	C	0.46776	0.93631	0.861515
121	S	0.435507	0.871529	0.918071
122	S	0.393862	0.787963	0.791798
123	H	0.3901	0.780119	0.303653
124	H	0.414709	0.829654	0.206808
125	H	0.414589	0.829934	0.503793
126	H	0.439029	0.879073	0.406439
127	H	0.462315	0.925808	0.387041
128	H	0.507791	0.016657	0.736093
129	H	0.53975	0.080334	0.131691
130	H	0.565286	0.131109	0.734057
131	H	0.589842	0.18025	0.636287
132	H	0.609979	0.220944	0.472239
133	H	0.628817	0.258632	0.216972
134	H	0.541912	0.084371	0.753615
135	H	0.49647	0.993523	0.404615
136	H	0.464606	0.929848	0.008966
137	C	0.229562	0.614001	0
138	C	0.213722	0.606134	0.157651
139	C	0.186771	0.592662	0.103909
140	C	0.183048	0.590751	0.907483
141	C	0.158563	0.578498	0.802826
142	C	0.15485	0.576557	0.606854
143	C	0.127894	0.563098	0.553278
144	C	0.111596	0.555048	0.709722
145	C	0.080797	0.539695	0.700169
146	C	0.066932	0.53271	0.53171
147	S	0.033915	0.516274	0.569027
148	C	0.037432	0.518136	0.81311
149	C	0.014771	0.5069	0.942588
150	C	0.988722	0.493918	0.8852
151	N	0.968279	0.483786	0.0096
152	C	0.974468	0.486929	0.198117
153	C	0.951805	0.475697	0.327576
154	C	0.925493	0.462614	0.279153
155	C	0.908438	0.454181	0.44049
156	C	0.877639	0.438883	0.430859
157	C	0.861331	0.430824	0.587232
158	C	0.834385	0.417432	0.533433
159	C	0.830672	0.415541	0.337396
160	C	0.805794	0.403161	0.237407
161	C	0.781078	0.390822	0.319552
162	C	0.760425	0.38056	0.182143
163	C	0.770169	0.385461	0
164	S	0.803185	0.401921	0.991745
165	S	0.860396	0.430269	0.222522
166	C	0.922301	0.461104	0.60896
167	S	0.955319	0.477496	0.571671
168	C	0.000518	0.499911	0.255498
169	N	0.020968	0.510047	0.131137
170	C	0.063744	0.531269	0.861515
171	S	0.128852	0.563742	0.918071
172	S	0.21284	0.605595	0.791798
173	H	0.220724	0.60967	0.303653
174	H	0.170938	0.584785	0.206808
175	H	0.170659	0.584388	0.503793
176	H	0.121271	0.559729	0.406439
177	H	0.0743	0.536317	0.387041
178	H	0.982991	0.491018	0.736093
179	H	0.918991	0.459351	0.131691
180	H	0.867958	0.434152	0.734057
181	H	0.818568	0.409606	0.636287
182	H	0.77767	0.389085	0.472239
183	H	0.739791	0.370265	0.216972
184	H	0.914933	0.457478	0.753615
185	H	0.006241	0.50281	0.404615
186	H	0.070238	0.534571	0.008966
