data_C138H66N6O6S18_2023-05-12_09:31:26
#******************************************
#
# CIF file created by Zeo++
# Zeo++ is an open source package to
# analyze microporous materials
#
#*******************************************

_cell_length_a		65.5925   
_cell_length_b		65.8909   
_cell_length_c		7   
_cell_angle_alpha		90   
_cell_angle_beta		90   
_cell_angle_gamma		119.802   

_symmetry_space_group_name_H-M		'P1'
_symmetry_Int_Tables_number		1
_symmetry_cell_setting		Monoclinic

loop_
_symmetry_equiv_pos_as_xyz
'+x,+y,+z'

loop_
_atom_site_label
_atom_site_type_symbol
_atom_site_fract_x
_atom_site_fract_y
_atom_site_fract_z
1	C	0.356969	0.671616	0.999995
2	O	0.377689	0.675255	0.999991
3	C	0.338216	0.647296	0.999998
4	C	0.341834	0.62937	0
5	N	0.365029	0.633562	0
6	C	0.314253	0.642979	3e-06
7	O	0.297401	0.622018	5e-06
8	C	0.308517	0.661683	6e-06
9	C	0.286465	0.657169	5e-06
10	N	0.268217	0.63332	0
11	C	0.32817	0.685808	4e-06
12	O	0.323613	0.701982	7e-06
13	C	0.35252	0.691209	0.999999
14	C	0.369846	0.713218	0.999998
15	N	0.366389	0.732755	0
16	H	0.32748	0.61192	1e-06
17	H	0.281828	0.670566	8e-06
18	H	0.387351	0.71636	0.999997
19	C	0.643031	0.328384	0.999995
20	O	0.622311	0.324745	0.999991
21	C	0.661784	0.352704	0.999998
22	C	0.658166	0.37063	0
23	N	0.634971	0.366438	0
24	C	0.685747	0.357021	3e-06
25	O	0.702599	0.377982	5e-06
26	C	0.691483	0.338317	6e-06
27	C	0.713535	0.342831	5e-06
28	N	0.731783	0.36668	0
29	C	0.67183	0.314192	4e-06
30	O	0.676387	0.298018	7e-06
31	C	0.64748	0.308791	0.999999
32	C	0.630154	0.286782	0.999998
33	N	0.633611	0.267245	0
34	H	0.67252	0.38808	1e-06
35	H	0.718172	0.329434	8e-06
36	H	0.612649	0.28364	0.999997
37	C	0.620832	0.38043	0
38	C	0.605261	0.388391	0.972832
39	C	0.597908	0.386006	0.777832
40	C	0.579976	0.393198	0.696486
41	C	0.572931	0.390893	0.508685
42	C	0.556245	0.398517	0.47878
43	C	0.551036	0.406526	0.644167
44	C	0.534429	0.414813	0.663225
45	C	0.51498	0.408605	0.549455
46	C	0.502106	0.419825	0.604881
47	C	0.51191	0.434445	0.76017
48	C	0.50384	0.449049	0.85572
49	C	0.502923	0.450126	0.055451
50	C	0.494764	0.4638	0.14561
51	C	0.493744	0.464908	0.345126
52	C	0.485508	0.478558	0.432235
53	C	0.478075	0.491487	0.322339
54	C	0.46971	0.505309	0.407597
55	C	0.462289	0.518399	0.298813
56	C	0.453732	0.53288	0.394779
57	C	0.453163	0.537277	0.587716
58	C	0.44369	0.552226	0.626857
59	C	0.437048	0.55925	0.463656
60	C	0.427113	0.574591	0.453526
61	C	0.425583	0.587789	0.601147
62	C	0.414794	0.601105	0.545132
63	C	0.408319	0.597778	0.355676
64	C	0.396101	0.60995	0.248515
65	C	0.390541	0.625367	0.336067
66	S	0.37732	0.635537	0.181887
67	C	0.379168	0.61957	0
68	C	0.389457	0.606635	0.051489
69	S	0.415159	0.578685	0.248458
70	S	0.442394	0.547258	0.265977
71	C	0.463481	0.517164	0.098906
72	C	0.471648	0.503466	0.009102
73	C	0.472623	0.502374	0.809602
74	C	0.480759	0.488702	0.722031
75	C	0.488166	0.475779	0.831764
76	C	0.49636	0.461935	0.745844
77	C	0.48734	0.476707	0.032942
78	C	0.479027	0.490561	0.121594
79	S	0.536816	0.434501	0.834794
80	S	0.566792	0.404825	0.833218
81	C	0.608376	0.376376	0.667006
82	S	0.626872	0.370318	0.797594
83	H	0.599386	0.395466	0.086214
84	H	0.579106	0.384036	0.396071
85	H	0.548528	0.398098	0.340968
86	H	0.509925	0.396346	0.431759
87	H	0.486222	0.41708	0.534373
88	H	0.508386	0.440006	0.142911
89	H	0.499411	0.455149	0.435003
90	H	0.484977	0.478993	0.587453
91	H	0.469051	0.505635	0.562689
92	H	0.459318	0.530267	0.699366
93	H	0.44195	0.557444	0.769919
94	H	0.432025	0.588135	0.744291
95	H	0.412159	0.612487	0.641182
96	H	0.393423	0.631342	0.482564
97	H	0.392095	0.595415	0.953608
98	H	0.458021	0.526984	0.007952
99	H	0.467017	0.512196	0.719951
100	H	0.481237	0.488257	0.566818
101	H	0.497088	0.461357	0.590716
102	H	0.606268	0.37243	0.516088
103	C	0.619151	0.23902	0
104	C	0.611232	0.215621	0.972832
105	C	0.613652	0.210691	0.777832
106	C	0.606512	0.185712	0.696486
107	C	0.608851	0.181008	0.508685
108	C	0.601275	0.156838	0.47878
109	C	0.593265	0.143685	0.644167
110	C	0.585024	0.118933	0.663225
111	C	0.591325	0.105793	0.549455
112	C	0.580128	0.081828	0.604881
113	C	0.565432	0.077006	0.76017
114	C	0.550822	0.054443	0.85572
115	C	0.549746	0.052459	0.055451
116	C	0.53607	0.030734	0.14561
117	C	0.534962	0.028615	0.345126
118	C	0.521311	0.006839	0.432235
119	C	0.508378	0.986576	0.322339
120	C	0.494554	0.964498	0.407597
121	C	0.48146	0.944088	0.298813
122	C	0.466976	0.921163	0.394779
123	C	0.46257	0.916218	0.587716
124	C	0.44762	0.891917	0.626857
125	C	0.440605	0.878322	0.463656
126	C	0.425264	0.853171	0.453526
127	C	0.412039	0.838506	0.601147
128	C	0.398732	0.814525	0.545132
129	C	0.402093	0.811406	0.355676
130	C	0.389939	0.787144	0.248515
131	C	0.374504	0.766263	0.336067
132	S	0.36436	0.742999	0.181887
133	C	0.380361	0.760738	0
134	C	0.393288	0.783845	0.051489
135	S	0.421207	0.837218	0.248458
136	S	0.452606	0.895577	0.265977
137	C	0.482694	0.946503	0.098906
138	C	0.496394	0.968259	0.009102
139	C	0.497485	0.970316	0.809602
140	C	0.511159	0.992016	0.722031
141	C	0.524086	0.012247	0.831764
142	C	0.537933	0.034176	0.745844
143	C	0.523159	0.010502	0.032942
144	C	0.509303	0.988444	0.121594
145	S	0.565276	0.101694	0.834794
146	S	0.594908	0.161033	0.833218
147	C	0.623265	0.230683	0.667006
148	S	0.629264	0.255092	0.797594
149	H	0.604161	0.202736	0.086214
150	H	0.615701	0.193973	0.396071
151	H	0.601726	0.149588	0.340968
152	H	0.603635	0.112981	0.431759
153	H	0.582943	0.068781	0.534373
154	H	0.55987	0.067965	0.142911
155	H	0.544724	0.043967	0.435003
156	H	0.520877	0.005877	0.587453
157	H	0.49423	0.963519	0.562689
158	H	0.469574	0.929316	0.699366
159	H	0.442396	0.884991	0.769919
160	H	0.411666	0.844562	0.744291
161	H	0.387331	0.80057	0.641182
162	H	0.368503	0.763177	0.482564
163	H	0.404526	0.79764	0.953608
164	H	0.47287	0.931296	0.007952
165	H	0.48766	0.954964	0.719951
166	H	0.511603	0.992934	0.566818
167	H	0.53851	0.035476	0.590716
168	H	0.627229	0.232518	0.516088
169	C	0.759652	0.380188	0
170	C	0.783142	0.395625	0.972832
171	C	0.788076	0.402941	0.777832
172	C	0.813146	0.420727	0.696486
173	C	0.817853	0.427736	0.508685
174	C	0.842116	0.444283	0.47878
175	C	0.855334	0.449426	0.644167
176	C	0.880182	0.465892	0.663225
177	C	0.893331	0.485239	0.549455
178	C	0.917402	0.497985	0.604881
179	C	0.922294	0.488187	0.76017
180	C	0.944973	0.496146	0.85572
181	C	0.946966	0.497052	0.055451
182	C	0.968801	0.505104	0.14561
183	C	0.97093	0.506114	0.345126
184	C	0.992816	0.514241	0.432235
185	C	0.013182	0.521574	0.322339
186	C	0.035371	0.52983	0.407597
187	C	0.055886	0.53715	0.298813
188	C	0.078927	0.545594	0.394779
189	C	0.083903	0.546142	0.587716
190	C	0.108325	0.555494	0.626857
191	C	0.121983	0.562065	0.463656
192	C	0.147259	0.571875	0.453526
193	C	0.162014	0.573342	0.601147
194	C	0.186109	0.584008	0.545132
195	C	0.189223	0.590454	0.355676
196	C	0.213596	0.602544	0.248515
197	C	0.234591	0.608007	0.336067
198	S	0.257955	0.621101	0.181887
199	C	0.240107	0.619329	0
200	C	0.21689	0.609158	0.051489
201	S	0.163269	0.583734	0.248458
202	S	0.104636	0.556802	0.265977
203	C	0.05346	0.535971	0.098906
204	C	0.031594	0.527912	0.009102
205	C	0.029528	0.526948	0.809602
206	C	0.007717	0.518919	0.722031
207	C	0.987384	0.511612	0.831764
208	C	0.965343	0.503526	0.745844
209	C	0.989137	0.512429	0.032942
210	C	0.011306	0.520633	0.121594
211	S	0.897543	0.463442	0.834794
212	S	0.837935	0.433779	0.833218
213	C	0.767994	0.392579	0.667006
214	S	0.743499	0.374227	0.797594
215	H	0.796088	0.401435	0.086214
216	H	0.804828	0.421628	0.396071
217	H	0.849382	0.451952	0.340968
218	H	0.886075	0.490311	0.431759
219	H	0.93047	0.513777	0.534373
220	H	0.93138	0.491666	0.142911
221	H	0.9555	0.500522	0.435003
222	H	0.993782	0.514767	0.587453
223	H	0.036354	0.530484	0.562689
224	H	0.070743	0.540055	0.699366
225	H	0.11529	0.557202	0.769919
226	H	0.155944	0.566941	0.744291
227	H	0.200145	0.586581	0.641182
228	H	0.237709	0.605119	0.482564
229	H	0.203014	0.606582	0.953608
230	H	0.068745	0.541357	0.007952
231	H	0.044958	0.532478	0.719951
232	H	0.006795	0.518446	0.566818
233	H	0.964038	0.502805	0.590716
234	H	0.766139	0.394689	0.516088
