data_C81H39N9O6S12_2023-05-13_09:00:41
#******************************************
#
# CIF file created by Zeo++
# Zeo++ is an open source package to
# analyze microporous materials
#
#*******************************************

_cell_length_a		49.9585   
_cell_length_b		50.257   
_cell_length_c		7   
_cell_angle_alpha		90   
_cell_angle_beta		90   
_cell_angle_gamma		119.741   

_symmetry_space_group_name_H-M		'P1'
_symmetry_Int_Tables_number		1
_symmetry_cell_setting		Monoclinic

loop_
_symmetry_equiv_pos_as_xyz
'+x,+y,+z'

loop_
_atom_site_label
_atom_site_type_symbol
_atom_site_fract_x
_atom_site_fract_y
_atom_site_fract_z
1	C	0.364357	0.673151	0.999995
2	O	0.391556	0.67792	0.999991
3	C	0.339775	0.641286	0.999998
4	C	0.344555	0.617798	0
5	N	0.375001	0.623291	0
6	C	0.308321	0.63563	3e-06
7	O	0.286229	0.608165	5e-06
8	C	0.300759	0.660136	6e-06
9	C	0.271813	0.654222	5e-06
10	N	0.247894	0.622974	0
11	C	0.326523	0.691747	4e-06
12	O	0.320514	0.712939	7e-06
13	C	0.358484	0.698823	0.999999
14	C	0.381197	0.727661	0.999998
15	N	0.376626	0.75326	0
16	H	0.325737	0.594933	1e-06
17	H	0.265703	0.671776	8e-06
18	H	0.404174	0.731779	0.999997
19	C	0.635643	0.326849	0.999995
20	O	0.608444	0.32208	0.999991
21	C	0.660225	0.358714	0.999998
22	C	0.655445	0.382202	0
23	N	0.624999	0.376709	0
24	C	0.691679	0.36437	3e-06
25	O	0.713771	0.391835	5e-06
26	C	0.699241	0.339864	6e-06
27	C	0.728187	0.345778	5e-06
28	N	0.752106	0.377026	0
29	C	0.673477	0.308253	4e-06
30	O	0.679486	0.287061	7e-06
31	C	0.641516	0.301177	0.999999
32	C	0.618803	0.272339	0.999998
33	N	0.623374	0.24674	0
34	H	0.674263	0.405067	1e-06
35	H	0.734297	0.328224	8e-06
36	H	0.595826	0.268221	0.999997
37	C	0.393588	0.604958	0
38	C	0.400664	0.59797	0.824894
39	C	0.417185	0.581674	0.844188
40	C	0.422099	0.576834	0.033077
41	C	0.437885	0.561265	0.10566
42	C	0.442765	0.556453	0.293674
43	C	0.459277	0.540167	0.312421
44	C	0.466978	0.532569	0.138748
45	C	0.483887	0.51589	0.100435
46	C	0.490274	0.50958	0.917383
47	N	0.505722	0.494342	0.876793
48	C	0.515826	0.484386	0.025008
49	C	0.532285	0.468149	0.96691
50	C	0.538241	0.462266	0.783291
51	C	0.554795	0.445938	0.778121
52	C	0.561413	0.439421	0.958133
53	C	0.577779	0.423282	0.007756
54	C	0.584441	0.41672	0.188379
55	C	0.601033	0.400356	0.184017
56	C	0.606412	0.395042	0
57	S	0.592077	0.409172	0.835056
58	S	0.547164	0.453484	0.12994
59	C	0.510671	0.489481	0.213063
60	C	0.494685	0.505249	0.249939
61	S	0.453646	0.545718	0.955796
62	S	0.406272	0.592453	0.184252
63	H	0.394532	0.604014	0.68979
64	H	0.425013	0.573947	0.722992
65	H	0.434958	0.564154	0.415084
66	H	0.465046	0.534477	0.449858
67	H	0.483077	0.516672	0.78985
68	H	0.53092	0.46948	0.657192
69	H	0.561382	0.439435	0.646283
70	H	0.577806	0.423271	0.319874
71	H	0.608399	0.393097	0.309452
72	H	0.518689	0.48158	0.332567
73	H	0.490972	0.508921	0.398229
74	C	0.394924	0.789926	0
75	C	0.401898	0.803893	0.824894
76	C	0.418163	0.836484	0.844188
77	C	0.422993	0.846172	0.033077
78	C	0.438533	0.877311	0.10566
79	C	0.443335	0.886936	0.293674
80	C	0.45959	0.919508	0.312421
81	C	0.467173	0.934702	0.138748
82	C	0.48382	0.968059	0.100435
83	C	0.490118	0.980669	0.917383
84	N	0.505326	0.011143	0.876793
85	C	0.515264	0.031065	0.025008
86	C	0.531469	0.063537	0.96691
87	C	0.537341	0.075295	0.783291
88	C	0.553637	0.10795	0.778121
89	C	0.560141	0.120994	0.958133
90	C	0.576249	0.153276	0.007756
91	C	0.582799	0.166409	0.188379
92	C	0.599132	0.199139	0.184017
93	C	0.604435	0.209757	0
94	S	0.590332	0.181488	0.835056
95	S	0.546106	0.092877	0.12994
96	C	0.510178	0.020886	0.213063
97	C	0.49444	0.98935	0.249939
98	S	0.454049	0.908403	0.955796
99	S	0.407404	0.814942	0.184252
100	H	0.395866	0.791801	0.68979
101	H	0.425875	0.851932	0.722992
102	H	0.435649	0.871534	0.415084
103	H	0.465269	0.930888	0.449858
104	H	0.48304	0.966478	0.78985
105	H	0.530141	0.060859	0.657192
106	H	0.560128	0.12095	0.646283
107	H	0.576261	0.153314	0.319874
108	H	0.606376	0.213663	0.309452
109	H	0.518064	0.036696	0.332567
110	H	0.490775	0.982016	0.398229
111	C	0.211009	0.604641	0
112	C	0.196959	0.597662	0.824894
113	C	0.164174	0.581366	0.844188
114	C	0.154429	0.576519	0.033077
115	C	0.123104	0.560949	0.10566
116	C	0.113421	0.556136	0.293674
117	C	0.080655	0.53985	0.312421
118	C	0.06537	0.532254	0.138748
119	C	0.031814	0.515576	0.100435
120	C	0.019129	0.509276	0.917383
121	N	0.988474	0.49404	0.876793
122	C	0.968432	0.484074	0.025008
123	C	0.935767	0.467839	0.96691
124	C	0.923939	0.461964	0.783291
125	C	0.891089	0.445637	0.778121
126	C	0.877967	0.43911	0.958133
127	C	0.845493	0.422967	0.007756
128	C	0.832281	0.416396	0.188379
129	C	0.799356	0.40003	0.184017
130	C	0.788674	0.394725	0
131	S	0.817112	0.408865	0.835056
132	S	0.906252	0.453164	0.12994
133	C	0.978672	0.489158	0.213063
134	C	0.010396	0.504925	0.249939
135	S	0.091826	0.545404	0.955796
136	S	0.185845	0.59213	0.184252
137	H	0.209123	0.60371	0.68979
138	H	0.148634	0.573646	0.722992
139	H	0.128915	0.563837	0.415084
140	H	0.069207	0.53416	0.449858
141	H	0.033405	0.516375	0.78985
142	H	0.938461	0.469186	0.657192
143	H	0.878012	0.43914	0.646283
144	H	0.845454	0.42294	0.319874
145	H	0.784745	0.392765	0.309452
146	H	0.962768	0.481249	0.332567
147	H	0.017774	0.508588	0.398229
