data_C138H66N6O6S18_2023-05-12_09:25:26
#******************************************
#
# CIF file created by Zeo++
# Zeo++ is an open source package to
# analyze microporous materials
#
#*******************************************

_cell_length_a		59.7213   
_cell_length_b		60.0197   
_cell_length_c		7   
_cell_angle_alpha		90   
_cell_angle_beta		90   
_cell_angle_gamma		119.783   

_symmetry_space_group_name_H-M		'P1'
_symmetry_Int_Tables_number		1
_symmetry_cell_setting		Monoclinic

loop_
_symmetry_equiv_pos_as_xyz
'+x,+y,+z'

loop_
_atom_site_label
_atom_site_type_symbol
_atom_site_fract_x
_atom_site_fract_y
_atom_site_fract_z
1	C	0.35929	0.672099	0.999995
2	O	0.382046	0.676093	0.999991
3	C	0.338704	0.645405	0.999998
4	C	0.342686	0.62573	0
5	N	0.368159	0.630331	0
6	C	0.312387	0.640667	3e-06
7	O	0.293887	0.61766	5e-06
8	C	0.306079	0.661196	6e-06
9	C	0.281861	0.656242	5e-06
10	N	0.26183	0.630066	0
11	C	0.327655	0.687676	4e-06
12	O	0.322642	0.705429	7e-06
13	C	0.354396	0.693604	0.999999
14	C	0.373416	0.717761	0.999998
15	N	0.369611	0.739206	0
16	H	0.326927	0.606576	1e-06
17	H	0.276763	0.670946	8e-06
18	H	0.39264	0.721211	0.999997
19	C	0.64071	0.327901	0.999995
20	O	0.617954	0.323907	0.999991
21	C	0.661296	0.354595	0.999998
22	C	0.657314	0.37427	0
23	N	0.631841	0.369669	0
24	C	0.687613	0.359333	3e-06
25	O	0.706113	0.38234	5e-06
26	C	0.693921	0.338804	6e-06
27	C	0.718139	0.343758	5e-06
28	N	0.73817	0.369934	0
29	C	0.672345	0.312324	4e-06
30	O	0.677358	0.294571	7e-06
31	C	0.645604	0.306396	0.999999
32	C	0.626584	0.282239	0.999998
33	N	0.630389	0.260794	0
34	H	0.673073	0.393424	1e-06
35	H	0.723237	0.329054	8e-06
36	H	0.60736	0.278789	0.999997
37	C	0.383694	0.614974	0
38	C	0.359417	0.605944	0.92717
39	S	0.341405	0.573355	0.949275
40	C	0.366295	0.571198	0.056332
41	C	0.363348	0.546674	0.114448
42	C	0.3433	0.522296	0.072515
43	C	0.346732	0.502359	0.153512
44	C	0.369468	0.511958	0.254145
45	C	0.378982	0.497402	0.352839
46	C	0.370761	0.485356	0.527507
47	C	0.384204	0.472317	0.58285
48	C	0.402132	0.474678	0.4481
49	C	0.41954	0.464032	0.453594
50	C	0.409672	0.438558	0.393847
51	C	0.424875	0.426976	0.401178
52	C	0.450227	0.440562	0.469077
53	C	0.4653	0.428759	0.478418
54	C	0.490578	0.442123	0.546627
55	C	0.501919	0.467901	0.606896
56	C	0.52763	0.482155	0.676732
57	C	0.544472	0.470978	0.696727
58	C	0.549346	0.460934	0.858535
59	C	0.567177	0.452141	0.82304
60	C	0.575282	0.455658	0.635335
61	C	0.593302	0.449182	0.552361
62	C	0.61898	0.459571	0.599002
63	C	0.631287	0.44858	0.490245
64	C	0.614689	0.429768	0.364451
65	C	0.620416	0.414494	0.233663
66	C	0.603958	0.39614	0.104255
67	C	0.616306	0.385026	0
68	C	0.641668	0.394711	0.048835
69	S	0.650702	0.417539	0.222712
70	S	0.584265	0.426067	0.380629
71	S	0.561705	0.470005	0.504594
72	C	0.537539	0.507705	0.734839
73	C	0.522439	0.51938	0.725205
74	C	0.497071	0.50575	0.657899
75	C	0.481911	0.517466	0.65054
76	C	0.456528	0.503993	0.584787
77	C	0.445311	0.47833	0.522111
78	C	0.460702	0.466352	0.529382
79	C	0.486609	0.479955	0.597708
80	S	0.402269	0.492246	0.254836
81	S	0.386125	0.544712	0.253102
82	C	0.387856	0.595379	0.07459
83	H	0.351304	0.616687	0.862226
84	H	0.326741	0.51859	0.986273
85	H	0.333261	0.482024	0.13666
86	H	0.356014	0.486094	0.612892
87	H	0.380902	0.461682	0.714979
88	H	0.389958	0.427569	0.341373
89	H	0.416688	0.407174	0.353921
90	H	0.45757	0.408934	0.43299
91	H	0.501411	0.431957	0.551727
92	H	0.540515	0.459949	0.995923
93	H	0.573549	0.443494	0.930171
94	H	0.628683	0.474552	0.704804
95	H	0.651527	0.454439	0.505505
96	H	0.583941	0.390933	0.08515
97	H	0.65537	0.389645	0.992012
98	H	0.557214	0.518673	0.788119
99	H	0.530676	0.53923	0.771452
100	H	0.489631	0.537275	0.696327
101	H	0.445557	0.514035	0.582614
102	H	0.405865	0.598804	0.137506
103	C	0.384943	0.76992	0
104	C	0.394104	0.754807	0.92717
105	S	0.426864	0.76937	0.949275
106	C	0.428918	0.79623	0.056332
107	C	0.453524	0.817721	0.114448
108	C	0.478058	0.822088	0.072515
109	C	0.498036	0.845345	0.153512
110	C	0.48831	0.858362	0.254145
111	C	0.502866	0.8823	0.352839
112	C	0.514982	0.886132	0.527507
113	C	0.527998	0.91246	0.58285
114	C	0.525553	0.927909	0.4481
115	C	0.536152	0.955792	0.453594
116	C	0.561741	0.971358	0.393847
117	C	0.573289	0.997984	0.401178
118	C	0.559555	0.009629	0.469077
119	C	0.571324	0.036344	0.478418
120	C	0.557812	0.048136	0.546627
121	C	0.531913	0.033731	0.606896
122	C	0.517506	0.045067	0.676732
123	C	0.528641	0.072917	0.696727
124	C	0.538692	0.087757	0.858535
125	C	0.547432	0.114215	0.82304
126	C	0.54387	0.11876	0.635335
127	C	0.550285	0.143099	0.552361
128	C	0.539754	0.15825	0.599002
129	C	0.550723	0.181413	0.490245
130	C	0.56966	0.183663	0.364451
131	C	0.584952	0.204556	0.233663
132	C	0.603429	0.206489	0.104255
133	C	0.61452	0.229814	0
134	C	0.604698	0.245353	0.048835
135	S	0.581767	0.231595	0.222712
136	S	0.573504	0.157141	0.380629
137	S	0.529541	0.090996	0.504594
138	C	0.491841	0.029467	0.734839
139	C	0.480199	0.002851	0.725205
140	C	0.493978	0.991234	0.657899
141	C	0.482296	0.964518	0.65054
142	C	0.495918	0.952731	0.584787
143	C	0.521702	0.967144	0.522111
144	C	0.533646	0.994351	0.529382
145	C	0.519891	0.006529	0.597708
146	S	0.507934	0.910554	0.254836
147	S	0.455392	0.842289	0.253102
148	C	0.404575	0.793562	0.07459
149	H	0.383366	0.736056	0.862226
150	H	0.481847	0.809336	0.986273
151	H	0.518486	0.852216	0.13666
152	H	0.514306	0.870754	0.612892
153	H	0.538678	0.91977	0.714979
154	H	0.572847	0.962725	0.341373
155	H	0.593182	0.00957	0.353921
156	H	0.591239	0.048408	0.43299
157	H	0.56796	0.069014	0.551727
158	H	0.539718	0.079969	0.995923
159	H	0.556076	0.129151	0.930171
160	H	0.52469	0.152969	0.704804
161	H	0.544759	0.195675	0.505505
162	H	0.608739	0.1918	0.08515
163	H	0.609719	0.264002	0.992012
164	H	0.480757	0.038082	0.788119
165	H	0.460258	0.991266	0.771452
166	H	0.462398	0.95246	0.696327
167	H	0.485896	0.931839	0.582614
168	H	0.401061	0.808032	0.137506
169	C	0.230962	0.614708	0
170	C	0.246078	0.638851	0.92717
171	S	0.231331	0.656877	0.949275
172	C	0.204386	0.632174	0.056332
173	C	0.182727	0.635207	0.114448
174	C	0.178241	0.655219	0.072515
175	C	0.154832	0.651898	0.153512
176	C	0.141821	0.629282	0.254145
177	C	0.117752	0.6199	0.352839
178	C	0.113856	0.628115	0.527507
179	C	0.087397	0.614825	0.58285
180	C	0.071915	0.597015	0.4481
181	C	0.043908	0.579778	0.453594
182	C	0.028187	0.589686	0.393847
183	C	0.001435	0.574642	0.401178
184	C	0.989818	0.549412	0.469077
185	C	0.962975	0.534498	0.478418
186	C	0.95121	0.509343	0.546627
187	C	0.965768	0.49797	0.606896
188	C	0.954463	0.472379	0.676732
189	C	0.926487	0.455707	0.696727
190	C	0.911561	0.450911	0.858535
191	C	0.88499	0.433246	0.82304
192	C	0.880448	0.425184	0.635335
193	C	0.856012	0.407321	0.552361
194	C	0.840865	0.381781	0.599002
195	C	0.817589	0.369609	0.490245
196	C	0.815251	0.386171	0.364451
197	C	0.794231	0.380552	0.233663
198	C	0.792213	0.396973	0.104255
199	C	0.768773	0.384761	0
200	C	0.753234	0.359538	0.048835
201	S	0.76713	0.350468	0.222712
202	S	0.84183	0.416394	0.380629
203	S	0.908353	0.438601	0.504594
204	C	0.97022	0.46243	0.734839
205	C	0.996961	0.477371	0.725205
206	C	0.00855	0.502618	0.657899
207	C	0.035392	0.517618	0.65054
208	C	0.047153	0.542878	0.584787
209	C	0.032587	0.554128	0.522111
210	C	0.005251	0.538899	0.529382
211	C	0.993099	0.513118	0.597708
212	S	0.089396	0.596802	0.254836
213	S	0.158083	0.612601	0.253102
214	C	0.207168	0.610662	0.07459
215	H	0.264929	0.646859	0.862226
216	H	0.191012	0.671676	0.986273
217	H	0.147852	0.665362	0.13666
218	H	0.12928	0.642754	0.612892
219	H	0.080019	0.61815	0.714979
220	H	0.036795	0.609308	0.341373
221	H	0.989729	0.582857	0.353921
222	H	0.950791	0.54226	0.43299
223	H	0.930228	0.498631	0.551727
224	H	0.919366	0.459684	0.995923
225	H	0.869975	0.426957	0.930171
226	H	0.846227	0.372082	0.704804
227	H	0.803313	0.349489	0.505505
228	H	0.80692	0.416869	0.08515
229	H	0.734511	0.345955	0.992012
230	H	0.961629	0.442847	0.788119
231	H	0.008665	0.469106	0.771452
232	H	0.047571	0.509867	0.696327
233	H	0.068147	0.553728	0.582614
234	H	0.192673	0.592766	0.137506
