data_C102H48N6O6S21_2023-05-14_20:06:45
#******************************************
#
# CIF file created by Zeo++
# Zeo++ is an open source package to
# analyze microporous materials
#
#*******************************************

_cell_length_a		56.8661   
_cell_length_b		57.1645   
_cell_length_c		7   
_cell_angle_alpha		90   
_cell_angle_beta		90   
_cell_angle_gamma		119.772   

_symmetry_space_group_name_H-M		'P1'
_symmetry_Int_Tables_number		1
_symmetry_cell_setting		Monoclinic

loop_
_symmetry_equiv_pos_as_xyz
'+x,+y,+z'

loop_
_atom_site_label
_atom_site_type_symbol
_atom_site_fract_x
_atom_site_fract_y
_atom_site_fract_z
1	C	0.360592	0.672369	0.999995
2	O	0.38449	0.676563	0.999991
3	C	0.338979	0.644346	0.999998
4	C	0.343165	0.62369	0
5	N	0.369916	0.62852	0
6	C	0.311342	0.639372	3e-06
7	O	0.291918	0.615218	5e-06
8	C	0.304712	0.660924	6e-06
9	C	0.279279	0.655723	5e-06
10	N	0.258248	0.628242	0
11	C	0.327365	0.688723	4e-06
12	O	0.322097	0.707361	7e-06
13	C	0.355447	0.694946	0.999999
14	C	0.375417	0.720308	0.999998
15	N	0.371415	0.74282	0
16	H	0.32662	0.603581	1e-06
17	H	0.273921	0.67116	8e-06
18	H	0.395605	0.723929	0.999997
19	C	0.639408	0.327631	0.999995
20	O	0.61551	0.323437	0.999991
21	C	0.661021	0.355654	0.999998
22	C	0.656835	0.37631	0
23	N	0.630084	0.37148	0
24	C	0.688658	0.360628	3e-06
25	O	0.708082	0.384782	5e-06
26	C	0.695288	0.339076	6e-06
27	C	0.720721	0.344277	5e-06
28	N	0.741752	0.371758	0
29	C	0.672635	0.311277	4e-06
30	O	0.677903	0.292639	7e-06
31	C	0.644553	0.305054	0.999999
32	C	0.624583	0.279692	0.999998
33	N	0.628585	0.25718	0
34	H	0.67338	0.396419	1e-06
35	H	0.726079	0.32884	8e-06
36	H	0.604395	0.276071	0.999997
37	C	0.613765	0.387602	0
38	C	0.610196	0.391127	0.810884
39	S	0.592878	0.408236	0.784139
40	C	0.590079	0.411005	0.027604
41	C	0.576397	0.424523	0.106678
42	C	0.564112	0.436664	0.009767
43	C	0.552577	0.44806	0.134232
44	C	0.55613	0.444547	0.32537
45	C	0.547179	0.453391	0.490413
46	C	0.550731	0.44988	0.681911
47	C	0.539202	0.46127	0.806663
48	C	0.52708	0.473247	0.707587
49	C	0.512494	0.487657	0.802465
50	C	0.510424	0.489702	0.99682
51	S	0.493503	0.506419	0.054639
52	C	0.488518	0.511345	0.818919
53	C	0.474234	0.525458	0.764618
54	C	0.462917	0.536636	0.88249
55	C	0.450352	0.549051	0.779456
56	C	0.452154	0.547273	0.583555
57	C	0.441784	0.55752	0.435704
58	C	0.443581	0.555749	0.2398
59	C	0.431009	0.56817	0.136939
60	C	0.41969	0.579349	0.25487
61	C	0.405499	0.593368	0.195298
62	C	0.400675	0.598131	0.008951
63	C	0.386235	0.612398	0
64	C	0.380148	0.618414	0.176011
65	S	0.392046	0.606662	0.354246
66	S	0.424704	0.574391	0.489793
67	S	0.469238	0.530395	0.529489
68	C	0.499861	0.500139	0.700665
69	S	0.529713	0.470647	0.466873
70	S	0.573563	0.427322	0.348759
71	C	0.602399	0.398834	0.125056
72	H	0.6168	0.384601	0.687201
73	H	0.563225	0.437542	0.855493
74	H	0.542153	0.45836	0.082905
75	H	0.561162	0.439575	0.733026
76	H	0.540015	0.460466	0.960853
77	H	0.517921	0.482295	0.109926
78	H	0.46343	0.536128	0.037092
79	H	0.440472	0.558811	0.848804
80	H	0.453462	0.54599	0.170468
81	H	0.430491	0.568686	0.98242
82	H	0.407233	0.591649	0.884534
83	H	0.369387	0.629046	0.209709
84	H	0.499165	0.500827	0.546262
85	H	0.603219	0.398026	0.279366
86	C	0.611926	0.224656	0
87	C	0.608407	0.217605	0.810884
88	S	0.591327	0.183386	0.784139
89	C	0.588563	0.177852	0.027604
90	C	0.575068	0.150816	0.106678
91	C	0.562947	0.126538	0.009767
92	C	0.551571	0.103746	0.134232
93	C	0.555078	0.110769	0.32537
94	C	0.546249	0.093081	0.490413
95	C	0.549754	0.100102	0.681911
96	C	0.538382	0.077321	0.806663
97	C	0.526426	0.053368	0.707587
98	C	0.51204	0.024547	0.802465
99	C	0.509999	0.020457	0.99682
100	S	0.493311	0.987024	0.054639
101	C	0.488392	0.977171	0.818919
102	C	0.474304	0.948947	0.764618
103	C	0.463144	0.926587	0.88249
104	C	0.450751	0.90176	0.779456
105	C	0.452526	0.905318	0.583555
106	C	0.442296	0.884825	0.435704
107	C	0.444064	0.888371	0.2398
108	C	0.431664	0.86353	0.136939
109	C	0.420504	0.841168	0.25487
110	C	0.406508	0.813128	0.195298
111	C	0.401754	0.8036	0.008951
112	C	0.387511	0.775066	0
113	C	0.381505	0.763037	0.176011
114	S	0.393237	0.786543	0.354246
115	S	0.425454	0.851079	0.489793
116	S	0.469374	0.939073	0.529489
117	C	0.49958	0.999585	0.700665
118	S	0.529022	0.05857	0.466873
119	S	0.572274	0.145218	0.348759
120	C	0.600713	0.202194	0.125056
121	H	0.614923	0.230656	0.687201
122	H	0.562071	0.124783	0.855493
123	H	0.541288	0.083147	0.082905
124	H	0.560041	0.120712	0.733026
125	H	0.539185	0.078929	0.960853
126	H	0.517394	0.035271	0.109926
127	H	0.463651	0.927602	0.037092
128	H	0.441007	0.882238	0.848804
129	H	0.453806	0.907892	0.170468
130	H	0.431149	0.862502	0.98242
131	H	0.408224	0.81656	0.884534
132	H	0.37089	0.741773	0.209709
133	H	0.498893	0.998209	0.546262
134	H	0.60152	0.203812	0.279366
135	C	0.773888	0.387324	0
136	C	0.780976	0.39085	0.810884
137	S	0.815374	0.40796	0.784139
138	C	0.820937	0.410726	0.027604
139	C	0.848115	0.424243	0.106678
140	C	0.87252	0.436381	0.009767
141	C	0.895431	0.447776	0.134232
142	C	0.888371	0.444266	0.32537
143	C	0.906152	0.45311	0.490413
144	C	0.899094	0.4496	0.681911
145	C	0.921995	0.460991	0.806663
146	C	0.946074	0.472967	0.707587
147	C	0.975046	0.487378	0.802465
148	C	0.979157	0.489423	0.99682
149	S	0.012765	0.50614	0.054639
150	C	0.022669	0.511066	0.818919
151	C	0.051042	0.525178	0.764618
152	C	0.073518	0.536358	0.88249
153	C	0.098476	0.548772	0.779456
154	C	0.094899	0.546992	0.583555
155	C	0.115499	0.557237	0.435704
156	C	0.111935	0.555462	0.2398
157	C	0.136906	0.567882	0.136939
158	C	0.159386	0.579066	0.25487
159	C	0.187572	0.593086	0.195298
160	C	0.197151	0.597852	0.008951
161	C	0.225834	0.612119	0
162	C	0.237926	0.618132	0.176011
163	S	0.214296	0.606377	0.354246
164	S	0.149422	0.574112	0.489793
165	S	0.060967	0.530113	0.529489
166	C	0.000139	0.499859	0.700665
167	S	0.940845	0.470366	0.466873
168	S	0.853742	0.427043	0.348759
169	C	0.796468	0.398554	0.125056
170	H	0.767857	0.384326	0.687201
171	H	0.874284	0.437257	0.855493
172	H	0.916138	0.458075	0.082905
173	H	0.878377	0.439295	0.733026
174	H	0.920379	0.460187	0.960853
175	H	0.964265	0.482016	0.109926
176	H	0.072498	0.535852	0.037092
177	H	0.1181	0.558533	0.848804
178	H	0.092312	0.5457	0.170468
179	H	0.13794	0.568395	0.98242
180	H	0.184123	0.591373	0.884534
181	H	0.259302	0.628763	0.209709
182	H	0.001521	0.500546	0.546262
183	H	0.794841	0.397744	0.279366
