data_C138H66N6O6S18_2023-05-15_15:12:08
#******************************************
#
# CIF file created by Zeo++
# Zeo++ is an open source package to
# analyze microporous materials
#
#*******************************************

_cell_length_a		66.6943   
_cell_length_b		66.9927   
_cell_length_c		7   
_cell_angle_alpha		90   
_cell_angle_beta		90   
_cell_angle_gamma		119.805   

_symmetry_space_group_name_H-M		'P1'
_symmetry_Int_Tables_number		1
_symmetry_cell_setting		Monoclinic

loop_
_symmetry_equiv_pos_as_xyz
'+x,+y,+z'

loop_
_atom_site_label
_atom_site_type_symbol
_atom_site_fract_x
_atom_site_fract_y
_atom_site_fract_z
1	C	0.356578	0.671534	0.999995
2	O	0.376957	0.675114	0.999991
3	C	0.338134	0.647614	0.999998
4	C	0.341691	0.629983	0
5	N	0.364503	0.634106	0
6	C	0.314567	0.643368	3e-06
7	O	0.297991	0.622751	5e-06
8	C	0.308927	0.661764	6e-06
9	C	0.287238	0.657325	5e-06
10	N	0.269291	0.633868	0
11	C	0.328257	0.685494	4e-06
12	O	0.323776	0.701402	7e-06
13	C	0.352205	0.690806	0.999999
14	C	0.369246	0.712454	0.999998
15	N	0.365848	0.73167	0
16	H	0.327573	0.612818	1e-06
17	H	0.282679	0.670502	8e-06
18	H	0.386462	0.715545	0.999997
19	C	0.643422	0.328466	0.999995
20	O	0.623043	0.324886	0.999991
21	C	0.661866	0.352386	0.999998
22	C	0.658309	0.370017	0
23	N	0.635497	0.365894	0
24	C	0.685433	0.356632	3e-06
25	O	0.702009	0.377249	5e-06
26	C	0.691073	0.338236	6e-06
27	C	0.712762	0.342675	5e-06
28	N	0.730709	0.366132	0
29	C	0.671743	0.314506	4e-06
30	O	0.676224	0.298598	7e-06
31	C	0.647795	0.309194	0.999999
32	C	0.630754	0.287546	0.999998
33	N	0.634152	0.26833	0
34	H	0.672427	0.387182	1e-06
35	H	0.717321	0.329498	8e-06
36	H	0.613538	0.284455	0.999997
37	C	0.621592	0.379656	0
38	C	0.60342	0.35781	0.976147
39	S	0.577651	0.357471	0.984369
40	C	0.590851	0.386797	0.020408
41	C	0.577523	0.398409	0.041319
42	C	0.554102	0.389554	0.012645
43	C	0.546804	0.405976	0.047055
44	C	0.5647	0.427244	0.10177
45	C	0.563684	0.44782	0.148429
46	C	0.581898	0.469813	0.181119
47	C	0.574543	0.485984	0.224515
48	C	0.550827	0.476007	0.223956
49	C	0.536704	0.486743	0.2623
50	C	0.527585	0.484452	0.446592
51	C	0.514419	0.494609	0.493567
52	C	0.510137	0.507334	0.357674
53	C	0.496962	0.517535	0.405632
54	C	0.492638	0.530304	0.271153
55	C	0.501322	0.533418	0.08328
56	C	0.497288	0.546324	0.942541
57	C	0.484054	0.55795	0.983305
58	C	0.491275	0.578752	0.072667
59	C	0.473275	0.584339	0.085092
60	C	0.452724	0.567745	0.004642
61	C	0.431037	0.567736	0.990839
62	C	0.409389	0.549439	0.949508
63	C	0.391815	0.555692	0.947743
64	C	0.400238	0.578724	0.986788
65	C	0.387495	0.590997	0.996932
66	C	0.396038	0.614501	0.982645
67	C	0.378408	0.620344	0
68	C	0.356884	0.60167	0.027488
69	S	0.357986	0.576727	0.031351
70	S	0.429492	0.592303	0.025958
71	S	0.455746	0.54543	0.915671
72	C	0.506399	0.548596	0.758236
73	C	0.519379	0.538257	0.710768
74	C	0.523618	0.525494	0.846583
75	C	0.536672	0.515173	0.798301
76	C	0.541047	0.50246	0.932912
77	C	0.532554	0.499537	0.121304
78	C	0.519156	0.509922	0.1706
79	C	0.514658	0.522972	0.033832
80	S	0.537746	0.447353	0.171328
81	S	0.590163	0.426718	0.109733
82	C	0.614672	0.396347	0.025484
83	H	0.603868	0.342061	0.954282
84	H	0.542395	0.372031	0.968258
85	H	0.529051	0.402054	0.031319
86	H	0.599914	0.474383	0.174569
87	H	0.586107	0.50403	0.254722
88	H	0.530777	0.474719	0.55499
89	H	0.50757	0.492507	0.637788
90	H	0.489833	0.515663	0.548572
91	H	0.482171	0.537785	0.315814
92	H	0.508638	0.589487	0.126779
93	H	0.47556	0.599991	0.150663
94	H	0.405985	0.532113	0.921997
95	H	0.373825	0.543603	0.917741
96	H	0.414124	0.626899	0.959811
97	H	0.340601	0.601306	0.045213
98	H	0.503389	0.558513	0.650304
99	H	0.526164	0.540296	0.56639
100	H	0.543598	0.516838	0.654812
101	H	0.551236	0.4947	0.887475
102	H	0.626602	0.414521	0.046139
103	C	0.61993	0.240568	0
104	C	0.641903	0.244274	0.976147
105	S	0.642343	0.219007	0.984369
106	C	0.612892	0.202911	0.020408
107	C	0.601303	0.178101	0.041319
108	C	0.610272	0.163651	0.012645
109	C	0.593837	0.140041	0.047055
110	C	0.572445	0.136638	0.10177
111	C	0.551822	0.115133	0.148429
112	C	0.529702	0.111324	0.181119
113	C	0.513519	0.087908	0.224515
114	C	0.523615	0.074282	0.223956
115	C	0.512906	0.049555	0.2623
116	C	0.515239	0.042776	0.446592
117	C	0.505108	0.019578	0.493567
118	C	0.492367	0.002647	0.357674
119	C	0.482193	0.979396	0.405632
120	C	0.469409	0.962381	0.271153
121	C	0.466252	0.967907	0.08328
122	C	0.453331	0.951044	0.942541
123	C	0.441727	0.926315	0.983305
124	C	0.420844	0.912767	0.072667
125	C	0.415313	0.889318	0.085092
126	C	0.43203	0.885428	0.004642
127	C	0.432123	0.863888	0.990839
128	C	0.450551	0.860603	0.949508
129	C	0.444352	0.836915	0.947743
130	C	0.421228	0.822341	0.986788
131	C	0.408974	0.797455	0.996932
132	C	0.385378	0.782532	0.982645
133	C	0.37959	0.759194	0
134	C	0.398395	0.756409	0.027488
135	S	0.423396	0.782349	0.031351
136	S	0.407501	0.837883	0.025958
137	S	0.454389	0.910658	0.915671
138	C	0.451017	0.957833	0.758236
139	C	0.461331	0.981029	0.710768
140	C	0.474109	0.997953	0.846583
141	C	0.484406	0.021205	0.798301
142	C	0.497133	0.038215	0.932912
143	C	0.500097	0.032688	0.121304
144	C	0.489738	0.009031	0.1706
145	C	0.476673	0.991563	0.033832
146	S	0.552392	0.089827	0.171328
147	S	0.572874	0.162463	0.109733
148	C	0.603224	0.217067	0.025484
149	H	0.657689	0.260405	0.954282
150	H	0.627885	0.169473	0.968258
151	H	0.597839	0.12631	0.031319
152	H	0.52505	0.124673	0.174569
153	H	0.495383	0.081423	0.254722
154	H	0.524984	0.055643	0.55499
155	H	0.507242	0.014866	0.637788
156	H	0.484098	0.974178	0.548572
157	H	0.46195	0.944529	0.315814
158	H	0.410014	0.919328	0.126779
159	H	0.399613	0.875998	0.150663
160	H	0.467934	0.87448	0.921997
161	H	0.456542	0.831082	0.917741
162	H	0.372878	0.788152	0.959811
163	H	0.398823	0.740592	0.045213
164	H	0.441087	0.944964	0.650304
165	H	0.459261	0.98574	0.56639
166	H	0.482709	0.026428	0.654812
167	H	0.504873	0.056068	0.887475
168	H	0.584958	0.210817	0.046139
169	C	0.758119	0.379419	0
170	C	0.754318	0.39756	0.976147
171	S	0.779647	0.423165	0.984369
172	C	0.795898	0.409935	0.020408
173	C	0.820816	0.423133	0.041319
174	C	0.835267	0.446438	0.012645
175	C	0.859001	0.453626	0.047055
176	C	0.862496	0.435761	0.10177
177	C	0.884136	0.43669	0.148429
178	C	0.888041	0.418506	0.181119
179	C	0.911579	0.425751	0.224515
180	C	0.9252	0.449355	0.223956
181	C	0.950031	0.463345	0.2623
182	C	0.956818	0.472415	0.446592
183	C	0.980114	0.485456	0.493567
184	C	0.997137	0.489662	0.357674
185	C	0.020487	0.502712	0.405632
186	C	0.037595	0.506959	0.271153
187	C	0.032067	0.498318	0.08328
188	C	0.049023	0.502275	0.942541
189	C	0.07386	0.515379	0.983305
190	C	0.087523	0.508124	0.072667
191	C	0.111053	0.525986	0.085092
192	C	0.114887	0.54647	0.004642
193	C	0.136481	0.568019	0.990839
194	C	0.139702	0.589601	0.949508
195	C	0.163474	0.607037	0.947743
196	C	0.178175	0.598578	0.986788
197	C	0.203172	0.611191	0.996932
198	C	0.218225	0.602611	0.982645
199	C	0.241644	0.620106	0
200	C	0.244362	0.641565	0.027488
201	S	0.218259	0.640568	0.031351
202	S	0.162648	0.569458	0.025958
203	S	0.089506	0.543555	0.915671
204	C	0.042226	0.493214	0.758236
205	C	0.018932	0.480357	0.710768
206	C	0.001914	0.476196	0.846583
207	C	0.978564	0.463265	0.798301
208	C	0.961461	0.458968	0.932912
209	C	0.966991	0.467419	0.121304
210	C	0.990748	0.48069	0.1706
211	C	0.008311	0.485108	0.033832
212	S	0.909504	0.462464	0.171328
213	S	0.836605	0.410463	0.109733
214	C	0.781745	0.386229	0.025484
215	H	0.738084	0.397177	0.954282
216	H	0.829361	0.458139	0.968258
217	H	0.872751	0.47128	0.031319
218	H	0.874677	0.400588	0.174569
219	H	0.918152	0.41419	0.254722
220	H	0.94388	0.469281	0.55499
221	H	0.984829	0.49227	0.637788
222	H	0.02571	0.509803	0.548572
223	H	0.05552	0.517329	0.315814
224	H	0.080989	0.490829	0.126779
225	H	0.124468	0.523654	0.150663
226	H	0.125722	0.59305	0.921997
227	H	0.169274	0.624959	0.917741
228	H	0.21264	0.584593	0.959811
229	H	0.260217	0.657745	0.045213
230	H	0.055166	0.496166	0.650304
231	H	0.014217	0.473608	0.56639
232	H	0.973334	0.456377	0.654812
233	H	0.943533	0.448875	0.887475
234	H	0.788081	0.374305	0.046139
