data_C96H48N6O6S12_2023-05-11_17:46:02
#******************************************
#
# CIF file created by Zeo++
# Zeo++ is an open source package to
# analyze microporous materials
#
#*******************************************

_cell_length_a		45.5822   
_cell_length_b		45.8807   
_cell_length_c		7   
_cell_angle_alpha		90   
_cell_angle_beta		90   
_cell_angle_gamma		119.716   

_symmetry_space_group_name_H-M		'P1'
_symmetry_Int_Tables_number		1
_symmetry_cell_setting		Monoclinic

loop_
_symmetry_equiv_pos_as_xyz
'+x,+y,+z'

loop_
_atom_site_label
_atom_site_type_symbol
_atom_site_fract_x
_atom_site_fract_y
_atom_site_fract_z
1	C	0.367332	0.673768	0.999995
2	O	0.39714	0.67899	0.999991
3	C	0.340408	0.638872	0.999998
4	C	0.345659	0.61315	0
5	N	0.379025	0.619165	0
6	C	0.305936	0.632678	3e-06
7	O	0.281738	0.602601	5e-06
8	C	0.297635	0.659515	6e-06
9	C	0.265913	0.653039	5e-06
10	N	0.239715	0.618818	0
11	C	0.325856	0.694133	4e-06
12	O	0.319257	0.71734	7e-06
13	C	0.360881	0.701882	0.999999
14	C	0.385758	0.733463	0.999998
15	N	0.380735	0.761496	0
16	H	0.325047	0.58811	1e-06
17	H	0.259207	0.672262	8e-06
18	H	0.41094	0.737972	0.999997
19	C	0.632668	0.326232	0.999995
20	O	0.60286	0.32101	0.999991
21	C	0.659592	0.361128	0.999998
22	C	0.654341	0.38685	0
23	N	0.620975	0.380835	0
24	C	0.694064	0.367322	3e-06
25	O	0.718262	0.397399	5e-06
26	C	0.702365	0.340485	6e-06
27	C	0.734087	0.346961	5e-06
28	N	0.760285	0.381182	0
29	C	0.674144	0.305867	4e-06
30	O	0.680743	0.28266	7e-06
31	C	0.639119	0.298118	0.999999
32	C	0.614242	0.266537	0.999998
33	N	0.619265	0.238504	0
34	H	0.674953	0.41189	1e-06
35	H	0.740793	0.327738	8e-06
36	H	0.58906	0.262028	0.999997
37	C	0.600593	0.400912	0
38	C	0.616902	0.398945	0.159893
39	C	0.615635	0.419319	0.310614
40	C	0.598482	0.435815	0.257676
41	C	0.592586	0.460174	0.390543
42	C	0.6041	0.467463	0.576079
43	S	0.593726	0.494692	0.683148
44	C	0.573554	0.496917	0.482146
45	C	0.557794	0.518096	0.481644
46	C	0.578727	0.552419	0.444369
47	C	0.565435	0.573824	0.439425
48	C	0.531036	0.561071	0.47104
49	C	0.508834	0.52663	0.508407
50	C	0.473591	0.513267	0.540793
51	C	0.45765	0.534265	0.533909
52	C	0.446921	0.544513	0.376156
53	C	0.432586	0.564972	0.426121
54	C	0.418144	0.580789	0.279717
55	C	0.404352	0.600622	0.328766
56	C	0.393419	0.611336	0.165237
57	C	0.399407	0.599088	0
58	S	0.417741	0.575291	0.037598
59	C	0.432825	0.569416	0.620971
60	S	0.450136	0.549119	0.741659
61	C	0.452639	0.478927	0.577482
62	C	0.465969	0.457559	0.583619
63	C	0.50038	0.470321	0.552393
64	C	0.52255	0.50473	0.514019
65	C	0.574942	0.477341	0.336415
66	S	0.584123	0.426586	0.027367
67	H	0.629079	0.383864	0.170299
68	H	0.626895	0.421452	0.449759
69	H	0.618156	0.45837	0.656596
70	H	0.605606	0.562531	0.419107
71	H	0.581741	0.600415	0.411158
72	H	0.521608	0.578706	0.466652
73	H	0.449451	0.537537	0.231747
74	H	0.402029	0.6074	0.473838
75	H	0.381892	0.627051	0.170661
76	H	0.423772	0.583497	0.70114
77	H	0.425723	0.468776	0.601532
78	H	0.449688	0.430994	0.612705
79	H	0.50988	0.452755	0.55908
80	H	0.563645	0.475569	0.197633
81	C	0.598528	0.198004	0
82	C	0.600408	0.216116	0.159893
83	C	0.579967	0.194604	0.310614
84	C	0.563508	0.161208	0.257676
85	C	0.539092	0.131147	0.390543
86	C	0.53171	0.135307	0.576079
87	S	0.504441	0.097956	0.683148
88	C	0.502323	0.075761	0.482146
89	C	0.481156	0.039089	0.481644
90	C	0.446586	0.025699	0.444369
91	C	0.425179	0.991249	0.439425
92	C	0.438175	0.969851	0.47104
93	C	0.47287	0.982101	0.508407
94	C	0.486484	0.960473	0.540793
95	C	0.465499	0.923803	0.533909
96	C	0.455275	0.902984	0.376156
97	C	0.434822	0.868441	0.426121
98	C	0.419029	0.838406	0.279717
99	C	0.399201	0.805023	0.328766
100	C	0.38851	0.78354	0.165237
101	C	0.400769	0.80165	0
102	S	0.424549	0.843474	0.037598
103	C	0.43036	0.864259	0.620971
104	S	0.450634	0.90159	0.741659
105	C	0.521069	0.97386	0.577482
106	C	0.54244	0.008312	0.583619
107	C	0.529434	0.029713	0.552393
108	C	0.494772	0.017463	0.514019
109	C	0.521963	0.096599	0.336415
110	S	0.572853	0.15616	0.027367
111	H	0.615475	0.243174	0.170299
112	H	0.577761	0.203637	0.449759
113	H	0.540757	0.158272	0.656596
114	H	0.436284	0.042273	0.419107
115	H	0.398397	0.980964	0.411158
116	H	0.420528	0.942976	0.466652
117	H	0.462262	0.912428	0.231747
118	H	0.392412	0.795984	0.473838
119	H	0.372804	0.756496	0.170661
120	H	0.416279	0.84129	0.70114
121	H	0.531412	0.957288	0.601532
122	H	0.569196	0.018596	0.612705
123	H	0.547011	0.056589	0.55908
124	H	0.523806	0.08717	0.197633
125	C	0.800355	0.400565	0
126	C	0.782165	0.384419	0.159893
127	C	0.803873	0.385557	0.310614
128	C	0.837486	0.402456	0.257676
129	C	0.867797	0.408158	0.390543
130	C	0.863665	0.39671	0.576079
131	S	0.901308	0.406831	0.683148
132	C	0.923598	0.426803	0.482146
133	C	0.960526	0.442295	0.481644
134	C	0.974162	0.421362	0.444369
135	C	0.008862	0.434407	0.439425
136	C	0.030264	0.468558	0.47104
137	C	0.017771	0.490749	0.508407
138	C	0.039401	0.52574	0.540793
139	C	0.076326	0.541412	0.533909
140	C	0.09728	0.551983	0.376156
141	C	0.132068	0.566067	0.426121
142	C	0.162303	0.580284	0.279717
143	C	0.195923	0.593834	0.328766
144	C	0.217546	0.604604	0.165237
145	C	0.199299	0.598741	0
146	S	0.157185	0.580714	0.037598
147	C	0.13629	0.565805	0.620971
148	S	0.098706	0.548772	0.741659
149	C	0.025767	0.546692	0.577482
150	C	0.991067	0.533609	0.583619
151	C	0.969661	0.499446	0.552393
152	C	0.982154	0.477286	0.514019
153	C	0.902571	0.42554	0.336415
154	S	0.842499	0.416734	0.027367
155	H	0.754921	0.372442	0.170299
156	H	0.794819	0.374391	0.449759
157	H	0.840563	0.382838	0.656596
158	H	0.957586	0.394676	0.419107
159	H	0.019338	0.418102	0.411158
160	H	0.057339	0.477797	0.466652
161	H	0.087762	0.549516	0.231747
162	H	0.205034	0.596096	0.473838
163	H	0.24478	0.615933	0.170661
164	H	0.159424	0.574692	0.70114
165	H	0.042341	0.573416	0.601532
166	H	0.980591	0.54989	0.612705
167	H	0.942585	0.490135	0.55908
168	H	0.912024	0.436741	0.197633
