data_C81H39N9O6S12_2023-05-13_09:40:21
#******************************************
#
# CIF file created by Zeo++
# Zeo++ is an open source package to
# analyze microporous materials
#
#*******************************************

_cell_length_a		48.8213   
_cell_length_b		49.1198   
_cell_length_c		7   
_cell_angle_alpha		90   
_cell_angle_beta		90   
_cell_angle_gamma		119.735   

_symmetry_space_group_name_H-M		'P1'
_symmetry_Int_Tables_number		1
_symmetry_cell_setting		Monoclinic

loop_
_symmetry_equiv_pos_as_xyz
'+x,+y,+z'

loop_
_atom_site_label
_atom_site_type_symbol
_atom_site_fract_x
_atom_site_fract_y
_atom_site_fract_z
1	C	0.365079	0.673301	0.999995
2	O	0.392911	0.678179	0.999991
3	C	0.339929	0.6407	0.999998
4	C	0.344822	0.61667	0
5	N	0.375977	0.622289	0
6	C	0.307742	0.634913	3e-06
7	O	0.285139	0.606814	5e-06
8	C	0.300001	0.659985	6e-06
9	C	0.270381	0.653935	5e-06
10	N	0.24591	0.621965	0
11	C	0.326361	0.692326	4e-06
12	O	0.320209	0.714008	7e-06
13	C	0.359066	0.699566	0.999999
14	C	0.382304	0.72907	0.999998
15	N	0.377624	0.75526	0
16	H	0.325569	0.593277	1e-06
17	H	0.264127	0.671894	8e-06
18	H	0.405816	0.733282	0.999997
19	C	0.634921	0.326699	0.999995
20	O	0.607089	0.321821	0.999991
21	C	0.660071	0.3593	0.999998
22	C	0.655178	0.38333	0
23	N	0.624023	0.377711	0
24	C	0.692258	0.365087	3e-06
25	O	0.714861	0.393186	5e-06
26	C	0.699999	0.340015	6e-06
27	C	0.729619	0.346065	5e-06
28	N	0.75409	0.378035	0
29	C	0.673639	0.307674	4e-06
30	O	0.679791	0.285992	7e-06
31	C	0.640934	0.300434	0.999999
32	C	0.617696	0.27093	0.999998
33	N	0.622376	0.24474	0
34	H	0.674431	0.406723	1e-06
35	H	0.735873	0.328106	8e-06
36	H	0.594184	0.266718	0.999997
37	C	0.394999	0.603533	0
38	C	0.390941	0.607539	0.18937
39	C	0.40478	0.593897	0.307679
40	C	0.418876	0.579997	0.204463
41	C	0.434891	0.564206	0.281879
42	C	0.439084	0.560069	0.472745
43	C	0.45588	0.543508	0.50202
44	C	0.464494	0.535019	0.333404
45	C	0.48194	0.517818	0.30557
46	C	0.489249	0.51059	0.126086
47	C	0.505841	0.494231	0.109332
48	C	0.515119	0.485104	0.273645
49	C	0.532646	0.467823	0.275576
50	C	0.542615	0.458006	0.432926
51	C	0.559054	0.441794	0.383498
52	C	0.561564	0.439307	0.1883
53	C	0.576595	0.42448	0.086682
54	C	0.579136	0.421965	0.890743
55	C	0.595593	0.405735	0.840385
56	C	0.605001	0.396467	0
57	S	0.594545	0.406787	0.206065
58	S	0.543682	0.456929	0.069599
59	N	0.508462	0.491688	0.449698
60	C	0.492332	0.507592	0.460848
61	S	0.451647	0.547693	0.142397
62	S	0.414844	0.583967	0.962843
63	H	0.378835	0.619476	0.242052
64	H	0.404248	0.594425	0.462257
65	H	0.430583	0.568447	0.588944
66	H	0.461175	0.538282	0.643016
67	H	0.482325	0.5174	0.994921
68	H	0.511073	0.489054	0.967799
69	H	0.538209	0.462359	0.578485
70	H	0.568491	0.432497	0.488858
71	H	0.56966	0.431303	0.785865
72	H	0.600058	0.401326	0.6953
73	H	0.488019	0.511863	0.607053
74	C	0.396343	0.792772	0
75	C	0.392345	0.784764	0.18937
76	C	0.40596	0.812051	0.307679
77	C	0.419833	0.839851	0.204463
78	C	0.435592	0.871433	0.281879
79	C	0.439721	0.879705	0.472745
80	C	0.45625	0.912827	0.50202
81	C	0.464722	0.92981	0.333404
82	C	0.481889	0.964212	0.30557
83	C	0.489103	0.978648	0.126086
84	C	0.50543	0.011367	0.109332
85	C	0.514539	0.029642	0.273645
86	C	0.531785	0.064205	0.275576
87	C	0.541583	0.083851	0.432926
88	C	0.557763	0.116272	0.383498
89	C	0.560246	0.121235	0.1883
90	C	0.575043	0.150883	0.086682
91	C	0.577553	0.155903	0.890743
92	C	0.593751	0.18836	0.840385
93	C	0.603001	0.206904	0
94	S	0.592701	0.186274	0.206065
95	S	0.542658	0.085981	0.069599
96	N	0.507967	0.016494	0.449698
97	C	0.492095	0.984686	0.460848
98	S	0.452073	0.904468	0.142397
99	S	0.41587	0.831905	0.962843
100	H	0.380432	0.760891	0.242052
101	H	0.405433	0.811	0.462257
102	H	0.43136	0.862944	0.588944
103	H	0.461465	0.923274	0.643016
104	H	0.482306	0.96501	0.994921
105	H	0.510596	0.021703	0.967799
106	H	0.537238	0.075154	0.578485
107	H	0.567042	0.134874	0.488858
108	H	0.568233	0.137222	0.785865
109	H	0.598152	0.197171	0.6953
110	H	0.487832	0.976162	0.607053
111	C	0.208168	0.603209	0
112	C	0.216225	0.607211	0.18937
113	C	0.188771	0.593565	0.307679
114	C	0.160802	0.579666	0.204463
115	C	0.129027	0.563874	0.281879
116	C	0.120705	0.55974	0.472745
117	C	0.08738	0.543179	0.50202
118	C	0.070294	0.534685	0.333404
119	C	0.035682	0.517483	0.30557
120	C	0.021158	0.510276	0.126086
121	C	0.988239	0.493917	0.109332
122	C	0.969852	0.484768	0.273645
123	C	0.935079	0.467486	0.275576
124	C	0.915312	0.457657	0.432926
125	C	0.882694	0.441447	0.383498
126	C	0.8777	0.438972	0.1883
127	C	0.847872	0.424151	0.086682
128	C	0.842821	0.421646	0.890743
129	C	0.810166	0.405419	0.840385
130	C	0.791509	0.396143	0
131	S	0.812265	0.406453	0.206065
132	S	0.91317	0.456604	0.069599
133	N	0.983081	0.491332	0.449698
134	C	0.015083	0.507236	0.460848
135	S	0.095791	0.547353	0.142397
136	S	0.168796	0.583642	0.962843
137	H	0.240243	0.619147	0.242052
138	H	0.189829	0.594089	0.462257
139	H	0.137568	0.568123	0.588944
140	H	0.07687	0.537958	0.643016
141	H	0.034879	0.517104	0.994921
142	H	0.97784	0.488757	0.967799
143	H	0.924062	0.462	0.578485
144	H	0.863978	0.432143	0.488858
145	H	0.861616	0.430989	0.785865
146	H	0.801301	0.401017	0.6953
147	H	0.023659	0.511489	0.607053
