data_C90H42N6O6S18_2023-05-11_01:13:50
#******************************************
#
# CIF file created by Zeo++
# Zeo++ is an open source package to
# analyze microporous materials
#
#*******************************************

_cell_length_a		49.3823   
_cell_length_b		49.6808   
_cell_length_c		7   
_cell_angle_alpha		90   
_cell_angle_beta		90   
_cell_angle_gamma		119.738   

_symmetry_space_group_name_H-M		'P1'
_symmetry_Int_Tables_number		1
_symmetry_cell_setting		Monoclinic

loop_
_symmetry_equiv_pos_as_xyz
'+x,+y,+z'

loop_
_atom_site_label
_atom_site_type_symbol
_atom_site_fract_x
_atom_site_fract_y
_atom_site_fract_z
1	C	0.364718	0.673226	0.999995
2	O	0.392234	0.67805	0.999991
3	C	0.339852	0.640992	0.999998
4	C	0.344689	0.617233	0
5	N	0.37549	0.622789	0
6	C	0.308031	0.635271	3e-06
7	O	0.285683	0.607488	5e-06
8	C	0.300379	0.660061	6e-06
9	C	0.271096	0.654078	5e-06
10	N	0.2469	0.622469	0
11	C	0.326442	0.692037	4e-06
12	O	0.320361	0.713474	7e-06
13	C	0.358776	0.699195	0.999999
14	C	0.381751	0.728367	0.999998
15	N	0.377126	0.754262	0
16	H	0.325653	0.594103	1e-06
17	H	0.264914	0.671835	8e-06
18	H	0.404997	0.732532	0.999997
19	C	0.635282	0.326774	0.999995
20	O	0.607766	0.32195	0.999991
21	C	0.660148	0.359008	0.999998
22	C	0.655311	0.382767	0
23	N	0.62451	0.377211	0
24	C	0.691969	0.364729	3e-06
25	O	0.714317	0.392512	5e-06
26	C	0.699621	0.339939	6e-06
27	C	0.728904	0.345922	5e-06
28	N	0.7531	0.377531	0
29	C	0.673558	0.307963	4e-06
30	O	0.679639	0.286526	7e-06
31	C	0.641224	0.300805	0.999999
32	C	0.618249	0.271633	0.999998
33	N	0.622874	0.245738	0
34	H	0.674347	0.405897	1e-06
35	H	0.735086	0.328165	8e-06
36	H	0.595003	0.267468	0.999997
37	C	0.394295	0.604244	0
38	C	0.409043	0.589701	0.079449
39	C	0.408314	0.590435	0.283469
40	C	0.422967	0.575989	0.421544
41	C	0.438382	0.560779	0.360459
42	C	0.449296	0.550024	0.515751
43	C	0.467753	0.531815	0.495387
44	C	0.475592	0.524072	0.323489
45	C	0.492253	0.507636	0.348185
46	C	0.496787	0.503175	0.538225
47	C	0.512589	0.487589	0.61605
48	C	0.517115	0.483124	0.806098
49	C	0.533779	0.46669	0.830873
50	C	0.541623	0.458953	0.658971
51	C	0.56006	0.44077	0.636152
52	C	0.570286	0.430683	0.78875
53	S	0.589514	0.411719	0.71731
54	C	0.584381	0.416783	0.481473
55	C	0.596531	0.404801	0.311318
56	C	0.61261	0.388942	0.338156
57	S	0.622688	0.379004	0.125953
58	C	0.605705	0.395756	0
59	C	0.592523	0.408756	0.112998
60	C	0.568284	0.43266	0.458048
61	S	0.528902	0.471502	0.47084
62	S	0.480482	0.519268	0.683446
63	C	0.441706	0.557522	0.689617
64	S	0.42171	0.577246	0.665017
65	C	0.392979	0.605565	0.348027
66	S	0.379675	0.618677	0.163913
67	H	0.419733	0.579151	0.995834
68	H	0.441738	0.557459	0.21149
69	H	0.469905	0.529674	0.185184
70	H	0.500432	0.499561	0.229606
71	H	0.50893	0.491196	0.924673
72	H	0.539449	0.461096	0.969276
73	H	0.567613	0.433317	0.939643
74	H	0.619105	0.382535	0.470912
75	H	0.580686	0.420432	0.056528
76	H	0.562574	0.438293	0.319949
77	H	0.446779	0.552527	0.831238
78	H	0.388751	0.609746	0.493671
79	C	0.395635	0.791352	0
80	C	0.410149	0.820439	0.079449
81	C	0.409417	0.818986	0.283469
82	C	0.423834	0.847883	0.421544
83	C	0.439015	0.878295	0.360459
84	C	0.449749	0.899813	0.515751
85	C	0.467923	0.936224	0.495387
86	C	0.475651	0.951697	0.323489
87	C	0.492054	0.984564	0.348185
88	C	0.496507	0.993496	0.538225
89	C	0.512062	0.024666	0.61605
90	C	0.516518	0.033594	0.806098
91	C	0.532921	0.066462	0.830873
92	C	0.540642	0.081935	0.658971
93	C	0.55879	0.118299	0.636152
94	C	0.568857	0.138471	0.78875
95	S	0.587785	0.176398	0.71731
96	C	0.58273	0.166272	0.481473
97	C	0.594689	0.190236	0.311318
98	C	0.610517	0.221952	0.338156
99	S	0.620436	0.241828	0.125953
100	C	0.603717	0.208328	0
101	C	0.590742	0.182328	0.112998
102	C	0.566885	0.134521	0.458048
103	S	0.528118	0.056841	0.47084
104	S	0.480445	0.961324	0.683446
105	C	0.442265	0.884829	0.689617
106	S	0.42258	0.845387	0.665017
107	C	0.394316	0.788734	0.348027
108	S	0.38123	0.762501	0.163913
109	H	0.420679	0.841532	0.995834
110	H	0.442328	0.884924	0.21149
111	H	0.470059	0.940486	0.185184
112	H	0.500114	0.000705	0.229606
113	H	0.508462	0.01745	0.924673
114	H	0.538504	0.077648	0.969276
115	H	0.566228	0.133201	0.939643
116	H	0.616912	0.234764	0.470912
117	H	0.579088	0.158978	0.056528
118	H	0.561262	0.123256	0.319949
119	H	0.447251	0.894828	0.831238
120	H	0.390144	0.780384	0.493671
121	C	0.209586	0.603923	0
122	C	0.180324	0.589379	0.079449
123	C	0.181785	0.590099	0.283469
124	C	0.152714	0.575647	0.421544
125	C	0.122119	0.560445	0.360459
126	C	0.10047	0.549683	0.515751
127	C	0.06384	0.531481	0.495387
128	C	0.048273	0.52375	0.323489
129	C	0.015208	0.507319	0.348185
130	C	0.006222	0.502848	0.538225
131	C	0.974864	0.487264	0.61605
132	C	0.965882	0.482801	0.806098
133	C	0.932816	0.466368	0.830873
134	C	0.91725	0.458631	0.658971
135	C	0.880666	0.44045	0.636152
136	C	0.860373	0.430365	0.78875
137	S	0.822217	0.411403	0.71731
138	C	0.832404	0.416465	0.481473
139	C	0.808295	0.404483	0.311318
140	C	0.776388	0.388626	0.338156
141	S	0.756392	0.378687	0.125953
142	C	0.790094	0.395435	0
143	C	0.816251	0.408435	0.112998
144	C	0.864347	0.432339	0.458048
145	S	0.942496	0.471177	0.47084
146	S	0.038589	0.518927	0.683446
147	C	0.115545	0.557168	0.689617
148	S	0.155225	0.576887	0.665017
149	C	0.21222	0.605221	0.348027
150	S	0.238611	0.618341	0.163913
151	H	0.159103	0.578837	0.995834
152	H	0.11545	0.557136	0.21149
153	H	0.059552	0.529359	0.185184
154	H	0.99897	0.499254	0.229606
155	H	0.982124	0.490873	0.924673
156	H	0.921563	0.460776	0.969276
157	H	0.865674	0.433001	0.939643
158	H	0.763499	0.382221	0.470912
159	H	0.839742	0.420109	0.056528
160	H	0.875679	0.43797	0.319949
161	H	0.105486	0.552165	0.831238
162	H	0.220621	0.60939	0.493671
