data_C114H48N12O6S24_2023-05-14_21:37:51
#******************************************
#
# CIF file created by Zeo++
# Zeo++ is an open source package to
# analyze microporous materials
#
#*******************************************

_cell_length_a		68.3752   
_cell_length_b		68.6736   
_cell_length_c		7   
_cell_angle_alpha		90   
_cell_angle_beta		90   
_cell_angle_gamma		119.81   

_symmetry_space_group_name_H-M		'P1'
_symmetry_Int_Tables_number		1
_symmetry_cell_setting		Monoclinic

loop_
_symmetry_equiv_pos_as_xyz
'+x,+y,+z'

loop_
_atom_site_label
_atom_site_type_symbol
_atom_site_fract_x
_atom_site_fract_y
_atom_site_fract_z
1	C	0.356007	0.671416	0.999995
2	O	0.375885	0.674908	0.999991
3	C	0.338014	0.648079	0.999998
4	C	0.341482	0.630879	0
5	N	0.363733	0.634901	0
6	C	0.315026	0.643937	3e-06
7	O	0.298856	0.623824	5e-06
8	C	0.309526	0.661884	6e-06
9	C	0.288371	0.657553	5e-06
10	N	0.270862	0.634669	0
11	C	0.328383	0.685034	4e-06
12	O	0.324014	0.700554	7e-06
13	C	0.351743	0.690216	0.999999
14	C	0.368368	0.711335	0.999998
15	N	0.365054	0.730082	0
16	H	0.327709	0.614134	1e-06
17	H	0.283925	0.670408	8e-06
18	H	0.38516	0.714351	0.999997
19	C	0.643993	0.328584	0.999995
20	O	0.624115	0.325092	0.999991
21	C	0.661986	0.351921	0.999998
22	C	0.658518	0.369121	0
23	N	0.636267	0.365099	0
24	C	0.684974	0.356063	3e-06
25	O	0.701144	0.376176	5e-06
26	C	0.690474	0.338116	6e-06
27	C	0.711629	0.342447	5e-06
28	N	0.729138	0.365331	0
29	C	0.671617	0.314966	4e-06
30	O	0.675986	0.299446	7e-06
31	C	0.648257	0.309784	0.999999
32	C	0.631632	0.288665	0.999998
33	N	0.634946	0.269918	0
34	H	0.672291	0.385866	1e-06
35	H	0.716075	0.329592	8e-06
36	H	0.61484	0.285649	0.999997
37	C	0.622705	0.378525	0
38	C	0.614829	0.378454	0.81997
39	S	0.597201	0.389412	0.820085
40	C	0.600117	0.394324	0.062701
41	C	0.58859	0.403965	0.165916
42	C	0.584269	0.402329	0.359901
43	C	0.572648	0.413792	0.417634
44	C	0.568231	0.424101	0.26727
45	C	0.556773	0.437056	0.278108
46	C	0.552298	0.445417	0.441979
47	C	0.540472	0.45723	0.40451
48	C	0.536036	0.457787	0.212526
49	C	0.52424	0.468412	0.13118
50	N	0.515788	0.477979	0.241485
51	C	0.505231	0.486828	0.132195
52	C	0.49429	0.498072	0.200978
53	C	0.484237	0.506157	0.074391
54	C	0.484845	0.503332	0.877904
55	C	0.495812	0.492115	0.809106
56	C	0.50582	0.483986	0.935715
57	S	0.52006	0.469765	0.890418
58	N	0.474241	0.51213	0.768622
59	C	0.46558	0.521489	0.879017
60	C	0.453513	0.531838	0.797756
61	C	0.450202	0.53351	0.60498
62	C	0.437621	0.544564	0.567918
63	C	0.431466	0.55125	0.732904
64	C	0.418512	0.562706	0.744697
65	C	0.405769	0.564682	0.60058
66	C	0.395145	0.57715	0.657207
67	C	0.399848	0.584542	0.844148
68	C	0.391857	0.597723	0.944163
69	C	0.38403	0.610913	0.861671
70	C	0.377295	0.621475	0
71	C	0.37987	0.616367	0.184081
72	S	0.390563	0.598559	0.189709
73	S	0.417311	0.576252	0.94661
74	S	0.44117	0.543777	0.930186
75	S	0.469878	0.520259	0.119723
76	S	0.54641	0.443884	0.081332
77	S	0.57857	0.419695	0.05823
78	C	0.614418	0.387509	0.139896
79	H	0.618444	0.372583	0.688555
80	H	0.588986	0.393152	0.457846
81	H	0.567685	0.414181	0.563885
82	H	0.557258	0.443316	0.584008
83	H	0.535394	0.465017	0.513776
84	H	0.493732	0.500363	0.354069
85	H	0.49637	0.489825	0.656013
86	H	0.456602	0.527038	0.494876
87	H	0.433469	0.547472	0.425336
88	H	0.403888	0.557436	0.459674
89	H	0.384396	0.580302	0.563709
90	H	0.383347	0.612963	0.708859
91	H	0.376065	0.622092	0.315399
92	H	0.618786	0.389043	0.289966
93	C	0.62107	0.242835	0
94	C	0.621171	0.235079	0.81997
95	S	0.610254	0.206644	0.820085
96	C	0.605318	0.204649	0.062701
97	C	0.595698	0.18359	0.165916
98	C	0.597355	0.180925	0.359901
99	C	0.585908	0.157957	0.417634
100	C	0.575591	0.143298	0.26727
101	C	0.562648	0.119007	0.278108
102	C	0.554283	0.10623	0.441979
103	C	0.542486	0.082711	0.40451
104	C	0.541945	0.077747	0.212526
105	C	0.531339	0.055441	0.13118
106	N	0.52178	0.03751	0.241485
107	C	0.51295	0.018204	0.132195
108	C	0.501721	0.996131	0.200978
109	C	0.493654	0.978086	0.074391
110	C	0.496484	0.981504	0.877904
111	C	0.507686	0.003577	0.809106
112	C	0.515797	0.021621	0.935715
113	S	0.529998	0.049938	0.890418
114	N	0.487704	0.962202	0.768622
115	C	0.478355	0.944271	0.879017
116	C	0.468027	0.921971	0.797756
117	C	0.466364	0.917015	0.60498
118	C	0.455331	0.8935	0.567918
119	C	0.448652	0.880724	0.732904
120	C	0.437217	0.856438	0.744697
121	C	0.435285	0.841806	0.60058
122	C	0.422827	0.818828	0.657207
123	C	0.415399	0.816138	0.844148
124	C	0.402217	0.795066	0.944163
125	C	0.389024	0.774148	0.861671
126	C	0.378461	0.756934	0
127	C	0.383572	0.764581	0.184081
128	S	0.401383	0.792948	0.189709
129	S	0.423643	0.84175	0.94661
130	S	0.456106	0.897811	0.930186
131	S	0.479573	0.949768	0.119723
132	S	0.555843	0.101906	0.081332
133	S	0.579968	0.157962	0.05823
134	C	0.612096	0.22565	0.139896
135	H	0.627043	0.24452	0.688555
136	H	0.606536	0.194754	0.457846
137	H	0.585537	0.152638	0.563885
138	H	0.556371	0.113253	0.584008
139	H	0.534699	0.069906	0.513776
140	H	0.499426	0.993293	0.354069
141	H	0.50998	0.006413	0.656013
142	H	0.472827	0.929822	0.494876
143	H	0.452431	0.886477	0.425336
144	H	0.442556	0.847155	0.459674
145	H	0.419709	0.805006	0.563709
146	H	0.386972	0.771427	0.708859
147	H	0.377848	0.755097	0.315399
148	H	0.610542	0.228462	0.289966
149	C	0.755875	0.378293	0
150	C	0.763649	0.386119	0.81997
151	S	0.792195	0.403596	0.820085
152	C	0.794215	0.400679	0.062701
153	C	0.815362	0.412098	0.165916
154	C	0.818027	0.416398	0.359901
155	C	0.841094	0.427903	0.417634
156	C	0.855829	0.432253	0.26727
157	C	0.880229	0.44359	0.278108
158	C	0.893069	0.448005	0.441979
159	C	0.916691	0.459712	0.40451
160	C	0.921669	0.464118	0.212526
161	C	0.944071	0.4758	0.13118
162	N	0.962082	0.484163	0.241485
163	C	0.981469	0.49462	0.132195
164	C	0.003639	0.50545	0.200978
165	C	0.021759	0.515409	0.074391
166	C	0.018322	0.514816	0.877904
167	C	0.996152	0.50396	0.809106
168	C	0.978033	0.494045	0.935715
169	S	0.949592	0.479949	0.890418
170	N	0.037705	0.52532	0.768622
171	C	0.055715	0.533891	0.879017
172	C	0.07811	0.545843	0.797756
173	C	0.083084	0.549127	0.60498
174	C	0.106699	0.561588	0.567918
175	C	0.119532	0.567678	0.732904
176	C	0.143921	0.580508	0.744697
177	C	0.158596	0.593164	0.60058
178	C	0.181678	0.603674	0.657207
179	C	0.184403	0.598972	0.844148
180	C	0.205577	0.606863	0.944163
181	C	0.226596	0.614591	0.861671
182	C	0.243893	0.621243	0
183	C	0.236208	0.618704	0.184081
184	S	0.207704	0.608146	0.189709
185	S	0.158697	0.58165	0.94661
186	S	0.102374	0.558064	0.930186
187	S	0.0502	0.529625	0.119723
188	S	0.897398	0.453862	0.081332
189	S	0.841112	0.421995	0.05823
190	C	0.773136	0.386493	0.139896
191	H	0.754163	0.382549	0.688555
192	H	0.804129	0.411746	0.457846
193	H	0.846428	0.432834	0.563885
194	H	0.886022	0.443084	0.584008
195	H	0.929557	0.464728	0.513776
196	H	0.006492	0.505996	0.354069
197	H	0.9933	0.503414	0.656013
198	H	0.070221	0.542792	0.494876
199	H	0.11375	0.565703	0.425336
200	H	0.153206	0.595061	0.459674
201	H	0.195546	0.614344	0.563709
202	H	0.229332	0.615262	0.708859
203	H	0.245737	0.622464	0.315399
204	H	0.770322	0.382147	0.289966
