data_C72H36N24O6_2023-05-10_21:06:23
#******************************************
#
# CIF file created by Zeo++
# Zeo++ is an open source package to
# analyze microporous materials
#
#*******************************************

_cell_length_a		41.8863   
_cell_length_b		42.1849   
_cell_length_c		7   
_cell_angle_alpha		90   
_cell_angle_beta		90   
_cell_angle_gamma		119.691   

_symmetry_space_group_name_H-M		'P1'
_symmetry_Int_Tables_number		1
_symmetry_cell_setting		Monoclinic

loop_
_symmetry_equiv_pos_as_xyz
'+x,+y,+z'

loop_
_atom_site_label
_atom_site_type_symbol
_atom_site_fract_x
_atom_site_fract_y
_atom_site_fract_z
1	C	0.370328	0.674388	0.999995
2	O	0.402763	0.680066	0.999991
3	C	0.341047	0.636444	0.999998
4	C	0.346776	0.608476	0
5	N	0.383083	0.615016	0
6	C	0.303537	0.629709	3e-06
7	O	0.277221	0.597005	5e-06
8	C	0.294489	0.658891	6e-06
9	C	0.259972	0.651849	5e-06
10	N	0.231481	0.614639	0
11	C	0.325181	0.696531	4e-06
12	O	0.317987	0.721766	7e-06
13	C	0.363293	0.704958	0.999999
14	C	0.390347	0.739297	0.999998
15	N	0.384865	0.769779	0
16	H	0.324359	0.581249	1e-06
17	H	0.252664	0.67275	8e-06
18	H	0.417748	0.7442	0.999997
19	C	0.629672	0.325612	0.999995
20	O	0.597237	0.319934	0.999991
21	C	0.658953	0.363556	0.999998
22	C	0.653224	0.391524	0
23	N	0.616917	0.384984	0
24	C	0.696463	0.370291	3e-06
25	O	0.722779	0.402995	5e-06
26	C	0.705511	0.341109	6e-06
27	C	0.740028	0.348151	5e-06
28	N	0.768519	0.385361	0
29	C	0.674819	0.303469	4e-06
30	O	0.682013	0.278234	7e-06
31	C	0.636707	0.295042	0.999999
32	C	0.609653	0.260703	0.999998
33	N	0.615135	0.230221	0
34	H	0.675641	0.418751	1e-06
35	H	0.747336	0.32725	8e-06
36	H	0.582252	0.2558	0.999997
37	C	0.594726	0.406814	0
38	N	0.59006	0.411401	0.813467
39	C	0.571543	0.429619	0.776253
40	C	0.557801	0.443142	0.916934
41	C	0.537569	0.463047	0.878461
42	C	0.530106	0.470394	0.694061
43	C	0.511048	0.489144	0.671374
44	N	0.498958	0.501034	0.817552
45	C	0.505591	0.494505	0.998924
46	C	0.491463	0.508401	0.155096
47	C	0.495914	0.504021	0.34877
48	C	0.48177	0.517933	0.483972
49	C	0.463367	0.536037	0.424316
50	C	0.459355	0.539985	0.229599
51	C	0.440183	0.558845	0.150873
52	C	0.424168	0.574599	0.263117
53	N	0.406575	0.591907	0.192326
54	C	0.405274	0.593186	0
55	C	0.420872	0.577841	0.885041
56	N	0.43833	0.560668	0.95706
57	N	0.47336	0.526209	0.099312
58	C	0.524741	0.475663	0.030912
59	N	0.562898	0.438131	0.104338
60	C	0.581386	0.419942	0.142141
61	H	0.568308	0.432798	0.625058
62	H	0.538593	0.462047	0.56635
63	H	0.50476	0.495334	0.530323
64	H	0.510137	0.490031	0.39871
65	H	0.485102	0.514656	0.635409
66	H	0.452622	0.546605	0.532512
67	H	0.424658	0.574117	0.417821
68	H	0.419992	0.578708	0.730455
69	H	0.530085	0.470402	0.175798
70	H	0.585053	0.416336	0.292376
71	C	0.592589	0.186184	0
72	N	0.588013	0.177006	0.813467
73	C	0.569837	0.140573	0.776253
74	C	0.556345	0.113532	0.916934
75	C	0.536485	0.073722	0.878461
76	C	0.529155	0.059034	0.694061
77	C	0.510448	0.021536	0.671374
78	N	0.498586	0.997753	0.817552
79	C	0.5051	0.010807	0.998924
80	C	0.491235	0.983012	0.155096
81	C	0.495605	0.991771	0.34877
82	C	0.481726	0.963945	0.483972
83	C	0.463663	0.927738	0.424316
84	C	0.459724	0.919843	0.229599
85	C	0.440908	0.882123	0.150873
86	C	0.42519	0.850613	0.263117
87	N	0.407922	0.815999	0.192326
88	C	0.406645	0.813439	0
89	C	0.421955	0.844129	0.885041
90	N	0.439089	0.878476	0.95706
91	N	0.473469	0.947395	0.099312
92	C	0.523899	0.048488	0.030912
93	N	0.561344	0.123556	0.104338
94	C	0.579491	0.159932	0.142141
95	H	0.566665	0.134211	0.625058
96	H	0.537483	0.07573	0.56635
97	H	0.504272	0.009161	0.530323
98	H	0.509563	0.019753	0.39871
99	H	0.484995	0.970501	0.635409
100	H	0.453119	0.906599	0.532512
101	H	0.42567	0.851577	0.417821
102	H	0.421091	0.842397	0.730455
103	H	0.529147	0.059005	0.175798
104	H	0.583089	0.167146	0.292376
105	C	0.812114	0.406437	0
106	N	0.821357	0.411027	0.813467
107	C	0.858049	0.429243	0.776253
108	C	0.885283	0.442761	0.916934
109	C	0.925375	0.462665	0.878461
110	C	0.940169	0.470006	0.694061
111	C	0.977933	0.488754	0.671374
112	N	0.001886	0.500648	0.817552
113	C	0.988738	0.494122	0.998924
114	C	0.016731	0.508021	0.155096
115	C	0.00791	0.503642	0.34877
116	C	0.035933	0.517556	0.483972
117	C	0.072399	0.53566	0.424316
118	C	0.08035	0.539607	0.229599
119	C	0.118338	0.558467	0.150873
120	C	0.150072	0.574222	0.263117
121	N	0.184932	0.591529	0.192326
122	C	0.18751	0.592809	0
123	C	0.156602	0.577464	0.885041
124	N	0.122011	0.56029	0.95706
125	N	0.052601	0.52583	0.099312
126	C	0.950789	0.475283	0.030912
127	N	0.875187	0.437747	0.104338
128	C	0.838552	0.41956	0.142141
129	H	0.864457	0.432425	0.625058
130	H	0.923353	0.461657	0.56635
131	H	0.990396	0.49494	0.530323
132	H	0.979729	0.489651	0.39871
133	H	0.029332	0.514278	0.635409
134	H	0.093688	0.54623	0.532512
135	H	0.149101	0.57374	0.417821
136	H	0.158347	0.57833	0.730455
137	H	0.940197	0.470027	0.175798
138	H	0.831288	0.415952	0.292376
