data_C93H57N15O6_2023-05-11_06:05:00
#******************************************
#
# CIF file created by Zeo++
# Zeo++ is an open source package to
# analyze microporous materials
#
#*******************************************

_cell_length_a		50.6473   
_cell_length_b		50.9458   
_cell_length_c		7   
_cell_angle_alpha		90   
_cell_angle_beta		90   
_cell_angle_gamma		119.744   

_symmetry_space_group_name_H-M		'P1'
_symmetry_Int_Tables_number		1
_symmetry_cell_setting		Monoclinic

loop_
_symmetry_equiv_pos_as_xyz
'+x,+y,+z'

loop_
_atom_site_label
_atom_site_type_symbol
_atom_site_fract_x
_atom_site_fract_y
_atom_site_fract_z
1	C	0.363935	0.673064	0.999995
2	O	0.390765	0.677768	0.999991
3	C	0.339686	0.641628	0.999998
4	C	0.344399	0.618457	0
5	N	0.374431	0.623876	0
6	C	0.308659	0.636048	3e-06
7	O	0.286865	0.608954	5e-06
8	C	0.301201	0.660224	6e-06
9	C	0.272649	0.65439	5e-06
10	N	0.249053	0.623563	0
11	C	0.326618	0.691409	4e-06
12	O	0.320691	0.712315	7e-06
13	C	0.358145	0.69839	0.999999
14	C	0.38055	0.726839	0.999998
15	N	0.376043	0.752092	0
16	H	0.325835	0.5959	1e-06
17	H	0.266623	0.671707	8e-06
18	H	0.403215	0.730901	0.999997
19	C	0.636065	0.326936	0.999995
20	O	0.609235	0.322232	0.999991
21	C	0.660314	0.358372	0.999998
22	C	0.655601	0.381543	0
23	N	0.625569	0.376124	0
24	C	0.691341	0.363952	3e-06
25	O	0.713135	0.391046	5e-06
26	C	0.698799	0.339776	6e-06
27	C	0.727351	0.34561	5e-06
28	N	0.750947	0.376437	0
29	C	0.673382	0.308591	4e-06
30	O	0.679309	0.287685	7e-06
31	C	0.641855	0.30161	0.999999
32	C	0.61945	0.273161	0.999998
33	N	0.623957	0.247908	0
34	H	0.674165	0.4041	1e-06
35	H	0.733377	0.328293	8e-06
36	H	0.596785	0.269099	0.999997
37	C	0.392764	0.60579	0
38	C	0.393024	0.60609	0.190972
39	C	0.408615	0.59067	0.258513
40	C	0.418073	0.580747	0.109395
41	C	0.434776	0.564039	0.113172
42	C	0.443211	0.555898	0.283295
43	C	0.459168	0.540004	0.280449
44	C	0.466735	0.532262	0.106241
45	C	0.483515	0.515604	0.089267
46	C	0.480907	0.498601	0.926897
47	N	0.495246	0.482326	0.898841
48	C	0.513972	0.482671	0.038971
49	C	0.529392	0.464821	0.004929
50	C	0.525466	0.44866	0.836639
51	C	0.540573	0.432193	0.812085
52	C	0.559594	0.431796	0.954981
53	C	0.575913	0.414842	0.935541
54	C	0.57553	0.397819	0.787141
55	C	0.594831	0.385119	0.826985
56	C	0.607236	0.39421	0
57	C	0.596661	0.414153	0.089101
58	C	0.562137	0.448584	0.118058
59	N	0.547789	0.464796	0.146343
60	C	0.518265	0.499231	0.205933
61	C	0.503088	0.515642	0.23054
62	N	0.458596	0.539697	0.939218
63	C	0.443187	0.555179	0.946432
64	C	0.40865	0.589659	0.925902
65	H	0.383298	0.616103	0.282733
66	H	0.411645	0.588089	0.40864
67	H	0.437565	0.561593	0.421192
68	H	0.465058	0.533659	0.415052
69	H	0.46637	0.497344	0.808571
70	H	0.510736	0.448779	0.724169
71	H	0.537028	0.419858	0.679281
72	H	0.563056	0.393582	0.65504
73	H	0.598343	0.370638	0.730242
74	H	0.615826	0.436811	0.116602
75	H	0.584151	0.404244	0.22166
76	H	0.576356	0.449803	0.237799
77	H	0.533432	0.499568	0.316896
78	H	0.507288	0.528678	0.361034
79	H	0.43774	0.560282	0.806025
80	H	0.428495	0.604787	0.839674
81	H	0.393123	0.569713	0.842376
82	C	0.394095	0.788264	0
83	C	0.393793	0.788223	0.190972
84	C	0.409184	0.819024	0.258513
85	C	0.419091	0.838274	0.109395
86	C	0.435768	0.871459	0.113172
87	C	0.443893	0.887922	0.283295
88	C	0.459757	0.919556	0.280449
89	C	0.467486	0.934763	0.106241
90	C	0.484113	0.967974	0.089267
91	C	0.501185	0.982303	0.926897
92	N	0.517441	0.012713	0.898841
93	C	0.516998	0.030939	0.038971
94	C	0.534828	0.063986	0.004929
95	C	0.551063	0.076172	0.836639
96	C	0.567507	0.107534	0.812085
97	C	0.567807	0.12679	0.954981
98	C	0.584734	0.159839	0.935541
99	C	0.601815	0.176394	0.787141
100	C	0.614458	0.208168	0.826985
101	C	0.605273	0.211424	0
102	C	0.585319	0.181099	0.089101
103	C	0.550951	0.11261	0.118058
104	N	0.534758	0.082253	0.146343
105	C	0.500361	0.01872	0.205933
106	C	0.483974	0.987344	0.23054
107	N	0.460068	0.919295	0.939218
108	C	0.444614	0.888613	0.946432
109	C	0.410198	0.820064	0.925902
110	H	0.383796	0.768618	0.282733
111	H	0.411757	0.824596	0.40864
112	H	0.438208	0.876658	0.421192
113	H	0.466093	0.93171	0.415052
114	H	0.502521	0.969139	0.808571
115	H	0.55102	0.061447	0.724169
116	H	0.579901	0.11629	0.679281
117	H	0.606131	0.168241	0.65504
118	H	0.628968	0.226057	0.730242
119	H	0.562487	0.177561	0.116602
120	H	0.595324	0.178551	0.22166
121	H	0.549655	0.125497	0.237799
122	H	0.499945	0.033424	0.316896
123	H	0.470873	0.978541	0.361034
124	H	0.439522	0.878135	0.806025
125	H	0.394917	0.824693	0.839674
126	H	0.430289	0.824511	0.842376
127	C	0.212669	0.605477	0
128	C	0.212711	0.605218	0.190972
129	C	0.18173	0.589838	0.258513
130	C	0.162364	0.58051	0.109395
131	C	0.128984	0.564034	0.113172
132	C	0.112424	0.555711	0.283295
133	C	0.080603	0.539971	0.280449
134	C	0.065307	0.532506	0.106241
135	C	0.0319	0.515954	0.089267
136	C	0.017435	0.518627	0.926897
137	N	0.986841	0.504492	0.898841
138	C	0.968557	0.485922	0.038971
139	C	0.935308	0.470724	0.004929
140	C	0.922999	0.474699	0.836639
141	C	0.891448	0.459804	0.812085
142	C	0.872127	0.440946	0.954981
143	C	0.838881	0.424851	0.935541
144	C	0.822183	0.425318	0.787141
145	C	0.790239	0.406244	0.826985
146	C	0.787019	0.393897	0
147	C	0.817548	0.40428	0.089101
148	C	0.88644	0.438337	0.118058
149	N	0.916981	0.452482	0.146343
150	C	0.980902	0.48158	0.205933
151	C	0.012466	0.496545	0.23054
152	N	0.080864	0.540539	0.939218
153	C	0.111727	0.555739	0.946432
154	C	0.18068	0.589808	0.925902
155	H	0.232433	0.614811	0.282733
156	H	0.176126	0.586847	0.40864
157	H	0.123755	0.561281	0.421192
158	H	0.068376	0.534162	0.415052
159	H	0.030636	0.533048	0.808571
160	H	0.937773	0.489305	0.724169
161	H	0.882599	0.463383	0.679281
162	H	0.830341	0.437709	0.65504
163	H	0.772216	0.402836	0.730242
164	H	0.821215	0.38516	0.116602
165	H	0.820052	0.416736	0.22166
166	H	0.873517	0.424231	0.237799
167	H	0.966151	0.466539	0.316896
168	H	0.021366	0.492313	0.361034
169	H	0.122266	0.561114	0.806025
170	H	0.176115	0.570052	0.839674
171	H	0.176115	0.605307	0.842376
