data_C78H36N12O6S6_2023-05-28_11:14:19
#******************************************
#
# CIF file created by Zeo++
# Zeo++ is an open source package to
# analyze microporous materials
#
#*******************************************

_cell_length_a		43.9272   
_cell_length_b		44.2258   
_cell_length_c		7   
_cell_angle_alpha		90   
_cell_angle_beta		90   
_cell_angle_gamma		119.705   

_symmetry_space_group_name_H-M		'P1'
_symmetry_Int_Tables_number		1
_symmetry_cell_setting		Monoclinic

loop_
_symmetry_equiv_pos_as_xyz
'+x,+y,+z'

loop_
_atom_site_label
_atom_site_type_symbol
_atom_site_fract_x
_atom_site_fract_y
_atom_site_fract_z
1	C	0.368611	0.674033	0.999995
2	O	0.399541	0.67945	0.999991
3	C	0.340681	0.637835	0.999998
4	C	0.346135	0.611154	0
5	N	0.380757	0.617393	0
6	C	0.304912	0.63141	3e-06
7	O	0.279809	0.600211	5e-06
8	C	0.296292	0.659248	6e-06
9	C	0.263376	0.65253	5e-06
10	N	0.236199	0.617033	0
11	C	0.325568	0.695157	4e-06
12	O	0.318716	0.719231	7e-06
13	C	0.361911	0.703196	0.999999
14	C	0.387719	0.735955	0.999998
15	N	0.3825	0.765035	0
16	H	0.324752	0.585179	1e-06
17	H	0.256413	0.67247	8e-06
18	H	0.413847	0.740633	0.999997
19	C	0.631389	0.325967	0.999995
20	O	0.600459	0.32055	0.999991
21	C	0.659319	0.362165	0.999998
22	C	0.653865	0.388846	0
23	N	0.619243	0.382607	0
24	C	0.695088	0.36859	3e-06
25	O	0.720191	0.399789	5e-06
26	C	0.703708	0.340752	6e-06
27	C	0.736624	0.34747	5e-06
28	N	0.763801	0.382967	0
29	C	0.674432	0.304843	4e-06
30	O	0.681284	0.280769	7e-06
31	C	0.638089	0.296804	0.999999
32	C	0.612281	0.264045	0.999998
33	N	0.6175	0.234965	0
34	H	0.675248	0.414821	1e-06
35	H	0.743587	0.32753	8e-06
36	H	0.586153	0.259367	0.999997
37	C	0.598089	0.403433	0
38	C	0.595633	0.40585	0.806396
39	C	0.577244	0.423953	0.759809
40	C	0.566265	0.434762	0.91914
41	C	0.546714	0.454009	0.927958
42	C	0.536542	0.464024	0.762843
43	N	0.518613	0.481674	0.757236
44	C	0.509312	0.490831	0.922521
45	C	0.51845	0.481836	0.098495
46	C	0.537068	0.463506	0.098292
47	C	0.509173	0.490969	0.271279
48	C	0.490826	0.509031	0.271279
49	C	0.481549	0.518163	0.098495
50	C	0.462931	0.536493	0.098292
51	C	0.453284	0.54599	0.927958
52	C	0.433734	0.565237	0.919139
53	C	0.422752	0.576043	0.759809
54	C	0.404364	0.594147	0.806396
55	C	0.401911	0.596567	0
56	S	0.421034	0.577744	0.124346
57	C	0.463457	0.535974	0.762843
58	N	0.481385	0.518324	0.757236
59	C	0.490687	0.509168	0.922521
60	S	0.578968	0.422257	0.124346
61	H	0.606242	0.395405	0.702485
62	H	0.572501	0.428622	0.6138
63	H	0.542474	0.458183	0.621556
64	H	0.543876	0.456804	0.23512
65	H	0.516159	0.484092	0.407195
66	H	0.483841	0.515908	0.407195
67	H	0.456123	0.543195	0.23512
68	H	0.427493	0.571372	0.613799
69	H	0.393754	0.60459	0.702485
70	H	0.457524	0.541815	0.621556
71	C	0.595991	0.192955	0
72	C	0.593579	0.18812	0.806396
73	C	0.575516	0.151914	0.759809
74	C	0.56473	0.130296	0.91914
75	C	0.545525	0.091801	0.927958
76	C	0.535532	0.071771	0.762843
77	N	0.517921	0.03647	0.757236
78	C	0.508784	0.018157	0.922521
79	C	0.51776	0.036148	0.098495
80	C	0.536049	0.072807	0.098292
81	C	0.508647	0.017882	0.271279
82	C	0.490624	0.981758	0.271279
83	C	0.481512	0.963493	0.098495
84	C	0.463223	0.926834	0.098292
85	C	0.453746	0.90784	0.927958
86	C	0.434541	0.869345	0.919139
87	C	0.423759	0.847727	0.759809
88	C	0.405694	0.811521	0.806396
89	C	0.40328	0.806686	0
90	S	0.422061	0.844335	0.124346
91	C	0.46374	0.92787	0.762843
92	N	0.481351	0.963171	0.757236
93	C	0.490488	0.981484	0.922521
94	S	0.577207	0.155306	0.124346
95	H	0.604001	0.209009	0.702485
96	H	0.570856	0.142574	0.6138
97	H	0.54136	0.083452	0.621556
98	H	0.542736	0.086211	0.23512
99	H	0.515508	0.031637	0.407195
100	H	0.483762	0.968004	0.407195
101	H	0.456535	0.913429	0.23512
102	H	0.42842	0.857066	0.613799
103	H	0.395274	0.790632	0.702485
104	H	0.457912	0.916188	0.621556
105	C	0.805376	0.403073	0
106	C	0.810244	0.405491	0.806396
107	C	0.846696	0.423594	0.759809
108	C	0.86846	0.434403	0.91914
109	C	0.907216	0.45365	0.927958
110	C	0.927382	0.463665	0.762843
111	N	0.962922	0.481316	0.757236
112	C	0.98136	0.490473	0.922521
113	C	0.963246	0.481477	0.098495
114	C	0.926339	0.463147	0.098292
115	C	0.981636	0.490609	0.271279
116	C	0.018005	0.508671	0.271279
117	C	0.036395	0.517805	0.098495
118	C	0.073302	0.536134	0.098292
119	C	0.092425	0.545631	0.927958
120	C	0.131181	0.564879	0.919139
121	C	0.152945	0.57569	0.759809
122	C	0.189397	0.593792	0.806396
123	C	0.194265	0.596207	0
124	S	0.15636	0.577381	0.124346
125	C	0.072259	0.535616	0.762843
126	N	0.036719	0.517966	0.757236
127	C	0.018281	0.508809	0.922521
128	S	0.843281	0.421897	0.124346
129	H	0.789213	0.395046	0.702485
130	H	0.856099	0.428264	0.6138
131	H	0.915621	0.457825	0.621556
132	H	0.912844	0.456445	0.23512
133	H	0.967788	0.483732	0.407195
134	H	0.031853	0.515549	0.407195
135	H	0.086798	0.542836	0.23512
136	H	0.143543	0.571022	0.613799
137	H	0.210428	0.604238	0.702485
138	H	0.08402	0.541457	0.621556
