data_C78H36N12O6S12_2023-05-14_21:25:09
#******************************************
#
# CIF file created by Zeo++
# Zeo++ is an open source package to
# analyze microporous materials
#
#*******************************************

_cell_length_a		46.3137   
_cell_length_b		46.6122   
_cell_length_c		7   
_cell_angle_alpha		90   
_cell_angle_beta		90   
_cell_angle_gamma		119.72   

_symmetry_space_group_name_H-M		'P1'
_symmetry_Int_Tables_number		1
_symmetry_cell_setting		Monoclinic

loop_
_symmetry_equiv_pos_as_xyz
'+x,+y,+z'

loop_
_atom_site_label
_atom_site_type_symbol
_atom_site_fract_x
_atom_site_fract_y
_atom_site_fract_z
1	C	0.366795	0.673657	0.999995
2	O	0.396133	0.678797	0.999991
3	C	0.340294	0.639307	0.999998
4	C	0.34546	0.613988	0
5	N	0.378299	0.619909	0
6	C	0.306366	0.63321	3e-06
7	O	0.282548	0.603604	5e-06
8	C	0.298198	0.659627	6e-06
9	C	0.266977	0.653252	5e-06
10	N	0.24119	0.619567	0
11	C	0.325976	0.693703	4e-06
12	O	0.319484	0.716547	7e-06
13	C	0.360449	0.701331	0.999999
14	C	0.384936	0.732417	0.999998
15	N	0.379995	0.760012	0
16	H	0.325171	0.58934	1e-06
17	H	0.260379	0.672174	8e-06
18	H	0.40972	0.736856	0.999997
19	C	0.633205	0.326343	0.999995
20	O	0.603867	0.321203	0.999991
21	C	0.659706	0.360693	0.999998
22	C	0.65454	0.386012	0
23	N	0.621701	0.380091	0
24	C	0.693634	0.36679	3e-06
25	O	0.717452	0.396396	5e-06
26	C	0.701802	0.340373	6e-06
27	C	0.733023	0.346748	5e-06
28	N	0.75881	0.380433	0
29	C	0.674024	0.306297	4e-06
30	O	0.680516	0.283453	7e-06
31	C	0.639551	0.298669	0.999999
32	C	0.615064	0.267583	0.999998
33	N	0.620005	0.239988	0
34	H	0.674829	0.41066	1e-06
35	H	0.739621	0.327826	8e-06
36	H	0.59028	0.263144	0.999997
37	C	0.601643	0.399854	0
38	C	0.612168	0.389486	0.154545
39	S	0.60111	0.400381	0.363534
40	C	0.582044	0.419164	0.246867
41	C	0.566316	0.434661	0.35105
42	C	0.563891	0.43705	0.546598
43	C	0.546601	0.454085	0.599391
44	C	0.535907	0.464621	0.443678
45	C	0.517447	0.482809	0.438223
46	C	0.507621	0.49249	0.602438
47	N	0.490574	0.509287	0.600185
48	C	0.483246	0.516507	0.425122
49	C	0.464809	0.534673	0.428649
50	C	0.454389	0.544938	0.586673
51	C	0.437032	0.56204	0.538164
52	C	0.434287	0.564745	0.343106
53	C	0.418386	0.580412	0.242366
54	C	0.415646	0.583112	0.046674
55	C	0.398357	0.600146	0
56	C	0.388106	0.610247	0.156887
57	S	0.399527	0.598994	0.363306
58	S	0.453089	0.546221	0.223341
59	C	0.493056	0.506841	0.260803
60	N	0.510107	0.490041	0.263641
61	S	0.547342	0.453356	0.235468
62	C	0.584441	0.416802	0.050591
63	H	0.625721	0.376134	0.156088
64	H	0.574002	0.427088	0.649978
65	H	0.542467	0.458159	0.746746
66	H	0.513058	0.487134	0.744335
67	H	0.459088	0.540309	0.732056
68	H	0.427127	0.571799	0.644062
69	H	0.425607	0.573297	0.941529
70	H	0.374558	0.623596	0.161548
71	H	0.487694	0.512126	0.118504
72	H	0.574281	0.42681	0.947863
73	C	0.599592	0.200122	0
74	C	0.609938	0.220859	0.154545
75	S	0.599066	0.19907	0.363534
76	C	0.580322	0.161501	0.246867
77	C	0.564857	0.130508	0.35105
78	C	0.562474	0.125731	0.546598
79	C	0.545474	0.09166	0.599391
80	C	0.534959	0.070587	0.443678
81	C	0.516809	0.03421	0.438223
82	C	0.507148	0.014848	0.602438
83	N	0.490386	0.981255	0.600185
84	C	0.483182	0.966816	0.425122
85	C	0.465054	0.930484	0.428649
86	C	0.454809	0.909952	0.586673
87	C	0.437743	0.875749	0.538164
88	C	0.435044	0.87034	0.343106
89	C	0.419409	0.839005	0.242366
90	C	0.416715	0.833606	0.046674
91	C	0.399716	0.799537	0
92	C	0.389636	0.779336	0.156887
93	S	0.400865	0.801841	0.363306
94	S	0.453529	0.907388	0.223341
95	C	0.492827	0.986147	0.260803
96	N	0.509592	0.019746	0.263641
97	S	0.546201	0.093118	0.235468
98	C	0.582679	0.166225	0.050591
99	H	0.623263	0.247566	0.156088
100	H	0.572414	0.145653	0.649978
101	H	0.541409	0.083512	0.746746
102	H	0.512493	0.025561	0.744335
103	H	0.459429	0.919211	0.732056
104	H	0.428004	0.856231	0.644062
105	H	0.42651	0.853235	0.941529
106	H	0.376315	0.752639	0.161548
107	H	0.487554	0.975579	0.118504
108	H	0.572692	0.146207	0.947863
109	C	0.798249	0.399512	0
110	C	0.777378	0.389142	0.154545
111	S	0.799308	0.400037	0.363534
112	C	0.837118	0.418822	0.246867
113	C	0.868311	0.434319	0.35105
114	C	0.873119	0.436708	0.546598
115	C	0.907409	0.453743	0.599391
116	C	0.928617	0.46428	0.443678
117	C	0.965228	0.482469	0.438223
118	C	0.984715	0.49215	0.602438
119	N	0.018524	0.508946	0.600185
120	C	0.033056	0.516165	0.425122
121	C	0.069622	0.534332	0.428649
122	C	0.090285	0.544598	0.586673
123	C	0.124708	0.561699	0.538164
124	C	0.130153	0.564404	0.343106
125	C	0.161688	0.580071	0.242366
126	C	0.167122	0.58277	0.046674
127	C	0.20141	0.599805	0
128	C	0.221742	0.609905	0.156887
129	S	0.199091	0.598652	0.363306
130	S	0.092866	0.545879	0.223341
131	C	0.0136	0.5065	0.260803
132	N	0.979785	0.489701	0.263641
133	S	0.905941	0.453014	0.235468
134	C	0.832364	0.416461	0.050591
135	H	0.7505	0.375789	0.156088
136	H	0.853068	0.426747	0.649978
137	H	0.915608	0.457817	0.746746
138	H	0.973932	0.486793	0.744335
139	H	0.080967	0.539968	0.732056
140	H	0.144352	0.571458	0.644062
141	H	0.147367	0.572956	0.941529
142	H	0.24861	0.623253	0.161548
143	H	0.024236	0.511784	0.118504
144	H	0.852511	0.426471	0.947863
