data_C114H54N6O6S12_2023-05-14_17:05:23
#******************************************
#
# CIF file created by Zeo++
# Zeo++ is an open source package to
# analyze microporous materials
#
#*******************************************

_cell_length_a		56.5602   
_cell_length_b		56.8587   
_cell_length_c		7   
_cell_angle_alpha		90   
_cell_angle_beta		90   
_cell_angle_gamma		119.771   

_symmetry_space_group_name_H-M		'P1'
_symmetry_Int_Tables_number		1
_symmetry_cell_setting		Monoclinic

loop_
_symmetry_equiv_pos_as_xyz
'+x,+y,+z'

loop_
_atom_site_label
_atom_site_type_symbol
_atom_site_fract_x
_atom_site_fract_y
_atom_site_fract_z
1	C	0.360739	0.6724	0.999995
2	O	0.384766	0.676616	0.999991
3	C	0.33901	0.644226	0.999998
4	C	0.343219	0.623459	0
5	N	0.370114	0.628316	0
6	C	0.311223	0.639225	3e-06
7	O	0.291695	0.614942	5e-06
8	C	0.304557	0.660893	6e-06
9	C	0.278987	0.655664	5e-06
10	N	0.257843	0.628035	0
11	C	0.327332	0.688842	4e-06
12	O	0.322035	0.707579	7e-06
13	C	0.355566	0.695098	0.999999
14	C	0.375643	0.720596	0.999998
15	N	0.37162	0.743229	0
16	H	0.326585	0.603243	1e-06
17	H	0.2736	0.671184	8e-06
18	H	0.395941	0.724236	0.999997
19	C	0.639261	0.3276	0.999995
20	O	0.615234	0.323384	0.999991
21	C	0.66099	0.355774	0.999998
22	C	0.656781	0.376541	0
23	N	0.629886	0.371684	0
24	C	0.688777	0.360775	3e-06
25	O	0.708305	0.385058	5e-06
26	C	0.695443	0.339107	6e-06
27	C	0.721013	0.344336	5e-06
28	N	0.742157	0.371965	0
29	C	0.672668	0.311158	4e-06
30	O	0.677965	0.292421	7e-06
31	C	0.644434	0.304902	0.999999
32	C	0.624357	0.279404	0.999998
33	N	0.62838	0.256771	0
34	H	0.673415	0.396757	1e-06
35	H	0.7264	0.328816	8e-06
36	H	0.604059	0.275764	0.999997
37	C	0.386522	0.612106	0
38	C	0.391093	0.607597	0.815063
39	S	0.408597	0.590307	0.806147
40	C	0.410142	0.588774	0.05174
41	C	0.423274	0.5758	0.149625
42	C	0.42538	0.57372	0.344803
43	C	0.439552	0.559717	0.395752
44	C	0.448278	0.551096	0.239581
45	C	0.46352	0.536039	0.235069
46	C	0.471037	0.528613	0.406544
47	C	0.485468	0.514356	0.409248
48	C	0.492835	0.507079	0.581233
49	C	0.507165	0.492921	0.581233
50	C	0.514532	0.485643	0.409247
51	C	0.528963	0.471386	0.406543
52	C	0.536479	0.46396	0.235068
53	C	0.551721	0.448903	0.239579
54	C	0.560448	0.440283	0.395751
55	C	0.574621	0.426281	0.344802
56	C	0.576725	0.4242	0.149624
57	C	0.589857	0.411226	0.051739
58	C	0.602731	0.398514	0.136256
59	C	0.613478	0.387894	0
60	C	0.608906	0.392402	0.815063
61	S	0.591401	0.409691	0.806146
62	S	0.561274	0.439463	0.032959
63	C	0.528963	0.471386	0.06363
64	C	0.51453	0.485644	0.061153
65	C	0.507164	0.492921	0.889199
66	C	0.492834	0.507077	0.889199
67	C	0.485468	0.514355	0.061153
68	C	0.471036	0.528613	0.06363
69	C	0.492728	0.507184	0.235214
70	C	0.507271	0.492815	0.235214
71	S	0.438725	0.560536	0.03296
72	C	0.39727	0.601486	0.136257
73	H	0.385128	0.613493	0.684888
74	H	0.417193	0.581808	0.449288
75	H	0.442992	0.556319	0.542751
76	H	0.465699	0.533887	0.542852
77	H	0.48747	0.512378	0.717503
78	H	0.51253	0.487622	0.717503
79	H	0.534301	0.466113	0.542849
80	H	0.55701	0.443682	0.54275
81	H	0.582809	0.418194	0.449287
82	H	0.604353	0.396919	0.289253
83	H	0.614871	0.386505	0.684888
84	H	0.534256	0.466156	0.926856
85	H	0.512533	0.487617	0.752928
86	H	0.487465	0.512381	0.752927
87	H	0.465742	0.533842	0.926856
88	H	0.395648	0.603083	0.289254
89	C	0.387801	0.775648	0
90	C	0.392303	0.784672	0.815063
91	S	0.409563	0.819255	0.806147
92	C	0.411094	0.822315	0.05174
93	C	0.424046	0.848262	0.149625
94	C	0.426123	0.852422	0.344803
95	C	0.440101	0.880426	0.395752
96	C	0.448707	0.897667	0.239581
97	C	0.463739	0.927782	0.235069
98	C	0.471152	0.942634	0.406544
99	C	0.485385	0.971147	0.409248
100	C	0.49265	0.985702	0.581233
101	C	0.506784	0.014018	0.581233
102	C	0.514049	0.028573	0.409247
103	C	0.528282	0.057087	0.406543
104	C	0.535695	0.071938	0.235068
105	C	0.550727	0.102053	0.239579
106	C	0.559332	0.119294	0.395751
107	C	0.573311	0.147298	0.344802
108	C	0.575388	0.151458	0.149624
109	C	0.58834	0.177405	0.051739
110	C	0.60103	0.202834	0.136256
111	C	0.611633	0.224073	0
112	C	0.607132	0.215048	0.815063
113	S	0.589873	0.180465	0.806146
114	S	0.560151	0.120931	0.032959
115	C	0.528283	0.057087	0.06363
116	C	0.514049	0.028571	0.061153
117	C	0.506784	0.014016	0.889199
118	C	0.492652	0.985704	0.889199
119	C	0.485386	0.971149	0.061153
120	C	0.471153	0.942633	0.06363
121	C	0.492545	0.985492	0.235214
122	C	0.506889	0.014228	0.235214
123	S	0.439284	0.87879	0.03296
124	C	0.398404	0.796886	0.136257
125	H	0.386417	0.772884	0.684888
126	H	0.418048	0.836246	0.449288
127	H	0.443494	0.887222	0.542751
128	H	0.465887	0.932087	0.542852
129	H	0.48736	0.975104	0.717503
130	H	0.512074	0.024617	0.717503
131	H	0.533547	0.067634	0.542849
132	H	0.555939	0.112499	0.54275
133	H	0.581384	0.163474	0.449287
134	H	0.602623	0.206033	0.289253
135	H	0.613019	0.226837	0.684888
136	H	0.533504	0.067546	0.926856
137	H	0.512079	0.024624	0.752928
138	H	0.487357	0.975096	0.752927
139	H	0.465932	0.932174	0.926856
140	H	0.396809	0.793687	0.289254
141	C	0.225254	0.611826	0
142	C	0.216182	0.60731	0.815063
143	S	0.181417	0.590018	0.806147
144	C	0.178341	0.588491	0.05174
145	C	0.152257	0.575518	0.149625
146	C	0.148075	0.573438	0.344803
147	C	0.119923	0.559437	0.395752
148	C	0.102591	0.550816	0.239581
149	C	0.072318	0.535759	0.235069
150	C	0.057388	0.528333	0.406544
151	C	0.028724	0.514076	0.409248
152	C	0.014092	0.506799	0.581233
153	C	0.985628	0.492641	0.581233
154	C	0.970996	0.485364	0.409247
155	C	0.942332	0.471107	0.406543
156	C	0.927403	0.463682	0.235068
157	C	0.897129	0.448624	0.239579
158	C	0.879797	0.440002	0.395751
159	C	0.851645	0.426001	0.344802
160	C	0.847464	0.423922	0.149624
161	C	0.82138	0.410949	0.051739
162	C	0.795817	0.398231	0.136256
163	C	0.774467	0.387614	0
164	C	0.783539	0.39213	0.815063
165	S	0.818304	0.409424	0.806146
166	S	0.878152	0.439187	0.032959
167	C	0.942332	0.471107	0.06363
168	C	0.970998	0.485365	0.061153
169	C	0.985629	0.492643	0.889199
170	C	0.014091	0.506799	0.889199
171	C	0.028723	0.514076	0.061153
172	C	0.057389	0.528334	0.06363
173	C	0.014304	0.506904	0.235214
174	C	0.985416	0.492536	0.235214
175	S	0.121568	0.560255	0.03296
176	C	0.203904	0.601208	0.136257
177	H	0.228032	0.613203	0.684888
178	H	0.164336	0.581526	0.449288
179	H	0.113092	0.556039	0.542751
180	H	0.067991	0.533606	0.542852
181	H	0.024747	0.512098	0.717503
182	H	0.974973	0.487341	0.717503
183	H	0.93173	0.465834	0.542849
184	H	0.886628	0.443399	0.54275
185	H	0.835384	0.417912	0.449287
186	H	0.792601	0.396628	0.289253
187	H	0.771688	0.386238	0.684888
188	H	0.931817	0.465878	0.926856
189	H	0.974965	0.487339	0.752928
190	H	0.024755	0.512103	0.752927
191	H	0.067903	0.533564	0.926856
192	H	0.207119	0.60281	0.289254
