data_C78H36N12O6S6_2023-05-12_06:08:34
#******************************************
#
# CIF file created by Zeo++
# Zeo++ is an open source package to
# analyze microporous materials
#
#*******************************************

_cell_length_a		35.0111   
_cell_length_b		35.3097   
_cell_length_c		7   
_cell_angle_alpha		90   
_cell_angle_beta		90   
_cell_angle_gamma		119.631   

_symmetry_space_group_name_H-M		'P1'
_symmetry_Int_Tables_number		1
_symmetry_cell_setting		Monoclinic

loop_
_symmetry_equiv_pos_as_xyz
'+x,+y,+z'

loop_
_atom_site_label
_atom_site_type_symbol
_atom_site_fract_x
_atom_site_fract_y
_atom_site_fract_z
1	C	0.377581	0.675886	0.999995
2	O	0.416377	0.682666	0.999991
3	C	0.342606	0.630581	0.999998
4	C	0.3495	0.597188	0
5	N	0.392928	0.604997	0
6	C	0.29774	0.62254	3e-06
7	O	0.266303	0.583492	5e-06
8	C	0.286872	0.657382	6e-06
9	C	0.245587	0.648974	5e-06
10	N	0.211555	0.604546	0
11	C	0.323536	0.702325	4e-06
12	O	0.314893	0.732455	7e-06
13	C	0.36912	0.712386	0.999999
14	C	0.401437	0.753386	0.999998
15	N	0.394834	0.789782	0
16	H	0.322721	0.564679	1e-06
17	H	0.236813	0.67393	8e-06
18	H	0.434212	0.759241	0.999997
19	C	0.622419	0.324114	0.999995
20	O	0.583623	0.317334	0.999991
21	C	0.657394	0.369419	0.999998
22	C	0.6505	0.402812	0
23	N	0.607072	0.395003	0
24	C	0.70226	0.37746	3e-06
25	O	0.733697	0.416508	5e-06
26	C	0.713128	0.342618	6e-06
27	C	0.754413	0.351026	5e-06
28	N	0.788445	0.395454	0
29	C	0.676464	0.297675	4e-06
30	O	0.685107	0.267545	7e-06
31	C	0.63088	0.287614	0.999999
32	C	0.598563	0.246614	0.999998
33	N	0.605166	0.210218	0
34	H	0.677279	0.435321	1e-06
35	H	0.763187	0.32607	8e-06
36	H	0.565788	0.240759	0.999997
37	C	0.580492	0.421069	0
38	C	0.62239	0.455714	0.012983
39	S	0.628221	0.487	0.209624
40	C	0.574456	0.45394	0.275344
41	C	0.557583	0.464232	0.447761
42	C	0.534141	0.487523	0.441016
43	C	0.52606	0.503155	0.269779
44	C	0.502999	0.525767	0.26978
45	C	0.487115	0.533633	0.441018
46	C	0.463365	0.556617	0.447763
47	C	0.452823	0.57321	0.275348
48	C	0.41821	0.551377	0.149959
49	C	0.419508	0.578931	0
50	C	0.454265	0.620579	0.012995
51	S	0.485887	0.62657	0.20964
52	C	0.448583	0.563439	0.622328
53	C	0.457799	0.547429	0.783975
54	N	0.480127	0.52549	0.782005
55	C	0.495073	0.518234	0.614867
56	C	0.518495	0.495269	0.614867
57	N	0.525953	0.48056	0.782005
58	C	0.548327	0.458667	0.783974
59	C	0.564601	0.449682	0.622326
60	C	0.552612	0.419584	0.149963
61	H	0.649885	0.464369	0.918226
62	H	0.537832	0.498123	0.133471
63	H	0.497818	0.537359	0.133472
64	H	0.393521	0.517408	0.166508
65	H	0.462822	0.647806	0.918244
66	H	0.430327	0.580798	0.632218
67	H	0.447227	0.55175	0.924193
68	H	0.552781	0.448256	0.924192
69	H	0.582309	0.431778	0.632215
70	H	0.518412	0.394941	0.166521
71	C	0.578256	0.157638	0
72	C	0.543133	0.16464	0.012983
73	S	0.511654	0.139347	0.209624
74	C	0.545271	0.119048	0.275344
75	C	0.535054	0.092163	0.447761
76	C	0.511826	0.045888	0.441016
77	C	0.496178	0.022388	0.269779
78	C	0.473629	0.977162	0.26978
79	C	0.465842	0.953663	0.441018
80	C	0.442924	0.907387	0.447763
81	C	0.426329	0.880502	0.275348
82	C	0.448524	0.86798	0.149959
83	C	0.420828	0.841912	0
84	C	0.378722	0.834909	0.012995
85	S	0.372467	0.860202	0.20964
86	C	0.436179	0.886013	0.622328
87	C	0.452197	0.911008	0.783975
88	N	0.474076	0.954842	0.782005
89	C	0.481256	0.976809	0.614867
90	C	0.504158	0.022742	0.614867
91	N	0.518883	0.04471	0.782005
92	C	0.540715	0.088543	0.783974
93	C	0.549623	0.113538	0.622326
94	C	0.579955	0.13157	0.149963
95	H	0.534233	0.183211	0.918226
96	H	0.501147	0.039012	0.133471
97	H	0.462019	0.960538	0.133472
98	H	0.48284	0.877307	0.166508
99	H	0.351301	0.816338	0.918244
100	H	0.418872	0.850747	0.632218
101	H	0.447934	0.896275	0.924193
102	H	0.551143	0.103276	0.924192
103	H	0.567482	0.148804	0.632215
104	H	0.60497	0.122244	0.166521
105	C	0.840569	0.420618	0
106	C	0.833794	0.378971	0.012983
107	S	0.859442	0.372978	0.209624
108	C	0.87959	0.426337	0.275344
109	C	0.90668	0.442929	0.447761
110	C	0.95335	0.465914	0.441016
111	C	0.977079	0.473782	0.269779
112	C	0.022689	0.496396	0.26978
113	C	0.04636	0.512029	0.441018
114	C	0.093028	0.535321	0.447763
115	C	0.120165	0.545612	0.275348
116	C	0.132583	0.579967	0.149959
117	C	0.158982	0.578481	0
118	C	0.166331	0.543836	0.012995
119	S	0.140963	0.512553	0.20964
120	C	0.114555	0.549873	0.622328
121	C	0.089321	0.540887	0.783975
122	N	0.045114	0.518993	0.782005
123	C	0.022988	0.504281	0.614867
124	C	0.976664	0.481314	0.614867
125	N	0.954481	0.474055	0.782005
126	C	0.910275	0.452114	0.783974
127	C	0.885094	0.436105	0.622326
128	C	0.86675	0.448171	0.149963
129	H	0.8152	0.351745	0.918226
130	H	0.960338	0.46219	0.133471
131	H	0.03948	0.501428	0.133472
132	H	0.122957	0.60461	0.166508
133	H	0.185195	0.535181	0.918244
134	H	0.150119	0.567779	0.632218
135	H	0.104156	0.5513	0.924193
136	H	0.895394	0.447792	0.924192
137	H	0.849526	0.418744	0.632215
138	H	0.875936	0.48214	0.166521
