data_C54H24N6O6S9_2023-05-12_14:44:44
#******************************************
#
# CIF file created by Zeo++
# Zeo++ is an open source package to
# analyze microporous materials
#
#*******************************************

_cell_length_a		34.5116   
_cell_length_b		34.8103   
_cell_length_c		7   
_cell_angle_alpha		90   
_cell_angle_beta		90   
_cell_angle_gamma		119.625   

_symmetry_space_group_name_H-M		'P1'
_symmetry_Int_Tables_number		1
_symmetry_cell_setting		Monoclinic

loop_
_symmetry_equiv_pos_as_xyz
'+x,+y,+z'

loop_
_atom_site_label
_atom_site_type_symbol
_atom_site_fract_x
_atom_site_fract_y
_atom_site_fract_z
1	C	0.37822	0.676018	0.999995
2	O	0.417577	0.682894	0.999991
3	C	0.342744	0.630066	0.999998
4	C	0.349742	0.596194	0
5	N	0.393797	0.604115	0
6	C	0.29723	0.621909	3e-06
7	O	0.265342	0.582303	5e-06
8	C	0.286201	0.657249	6e-06
9	C	0.244319	0.648721	5e-06
10	N	0.2098	0.603658	0
11	C	0.32339	0.702835	4e-06
12	O	0.314619	0.733396	7e-06
13	C	0.369633	0.713039	0.999999
14	C	0.402414	0.754626	0.999998
15	N	0.395711	0.791542	0
16	H	0.322578	0.563221	1e-06
17	H	0.235416	0.674034	8e-06
18	H	0.435661	0.760564	0.999997
19	C	0.62178	0.323982	0.999995
20	O	0.582423	0.317106	0.999991
21	C	0.657256	0.369934	0.999998
22	C	0.650258	0.403806	0
23	N	0.606203	0.395885	0
24	C	0.70277	0.378091	3e-06
25	O	0.734658	0.417697	5e-06
26	C	0.713799	0.342751	6e-06
27	C	0.755681	0.351279	5e-06
28	N	0.7902	0.396342	0
29	C	0.67661	0.297165	4e-06
30	O	0.685381	0.266604	7e-06
31	C	0.630367	0.286961	0.999999
32	C	0.597586	0.245374	0.999998
33	N	0.604289	0.208458	0
34	H	0.677422	0.436779	1e-06
35	H	0.764584	0.325966	8e-06
36	H	0.564339	0.239436	0.999997
37	C	0.420765	0.577677	0
38	C	0.428611	0.569985	0.815723
39	S	0.45745	0.541714	0.810462
40	C	0.459204	0.539994	0.054729
41	C	0.482232	0.517419	0.167245
42	C	0.483622	0.516056	0.363366
43	S	0.510876	0.489338	0.441684
44	C	0.521544	0.47888	0.213189
45	C	0.545519	0.455376	0.171106
46	C	0.55537	0.445719	0.991332
47	C	0.579235	0.422323	0
48	C	0.587452	0.414267	0.182757
49	S	0.566038	0.43526	0.345823
50	C	0.504086	0.495994	0.081469
51	C	0.438164	0.56062	0.138905
52	H	0.419031	0.579376	0.684327
53	H	0.470124	0.529288	0.466972
54	H	0.545853	0.455049	0.859365
55	H	0.604822	0.397238	0.229432
56	H	0.506836	0.493298	0.92859
57	H	0.435322	0.563406	0.291609
58	C	0.422075	0.844417	0
59	C	0.429746	0.859803	0.815723
60	S	0.457937	0.916344	0.810462
61	C	0.459653	0.919784	0.054729
62	C	0.482165	0.964935	0.167245
63	C	0.483524	0.967661	0.363366
64	S	0.510167	0.021097	0.441684
65	C	0.520596	0.042012	0.213189
66	C	0.544035	0.089021	0.171106
67	C	0.553665	0.108335	0.991332
68	C	0.576995	0.155127	0
69	C	0.585028	0.171237	0.182757
70	S	0.564094	0.129252	0.345823
71	C	0.50353	0.007783	0.081469
72	C	0.439085	0.878532	0.138905
73	H	0.420381	0.841019	0.684327
74	H	0.470329	0.941196	0.466972
75	H	0.544361	0.089675	0.859365
76	H	0.60201	0.205295	0.229432
77	H	0.506218	0.013175	0.92859
78	H	0.436306	0.87296	0.291609
79	C	0.156468	0.57722	0
80	C	0.14095	0.569528	0.815723
81	S	0.083921	0.541257	0.810462
82	C	0.08045	0.539537	0.054729
83	C	0.034911	0.516962	0.167245
84	C	0.032161	0.515599	0.363366
85	S	0.978264	0.488881	0.441684
86	C	0.957168	0.478423	0.213189
87	C	0.909753	0.454919	0.171106
88	C	0.890273	0.445262	0.991332
89	C	0.843077	0.421866	0
90	C	0.826827	0.413811	0.182757
91	S	0.869175	0.434803	0.345823
92	C	0.991692	0.495538	0.081469
93	C	0.122059	0.560163	0.138905
94	H	0.159896	0.57892	0.684327
95	H	0.058854	0.528831	0.466972
96	H	0.909094	0.454592	0.859365
97	H	0.792475	0.396782	0.229432
98	H	0.986253	0.492842	0.92859
99	H	0.127679	0.562949	0.291609
