data_C48H24N6O6S6_2023-05-12_07:16:14
#******************************************
#
# CIF file created by Zeo++
# Zeo++ is an open source package to
# analyze microporous materials
#
#*******************************************

_cell_length_a		27.7453   
_cell_length_b		28.044   
_cell_length_c		7   
_cell_angle_alpha		90   
_cell_angle_beta		90   
_cell_angle_gamma		119.535   

_symmetry_space_group_name_H-M		'P1'
_symmetry_Int_Tables_number		1
_symmetry_cell_setting		Monoclinic

loop_
_symmetry_equiv_pos_as_xyz
'+x,+y,+z'

loop_
_atom_site_label
_atom_site_type_symbol
_atom_site_fract_x
_atom_site_fract_y
_atom_site_fract_z
1	C	0.389145	0.678264	0.999995
2	O	0.438085	0.686792	0.999991
3	C	0.345122	0.621275	0.999998
4	C	0.353903	0.57927	0
5	N	0.408684	0.589093	0
6	C	0.288526	0.61116	3e-06
7	O	0.248953	0.562042	5e-06
8	C	0.274727	0.654988	6e-06
9	C	0.222651	0.644411	5e-06
10	N	0.179816	0.588526	0
11	C	0.320883	0.711521	4e-06
12	O	0.309903	0.749421	7e-06
13	C	0.378379	0.724176	0.999999
14	C	0.41906	0.77575	0.999998
15	N	0.410638	0.821532	0
16	H	0.32019	0.538377	1e-06
17	H	0.211519	0.675804	8e-06
18	H	0.460402	0.783115	0.999997
19	C	0.610855	0.321736	0.999995
20	O	0.561915	0.313208	0.999991
21	C	0.654878	0.378725	0.999998
22	C	0.646097	0.42073	0
23	N	0.591316	0.410907	0
24	C	0.711474	0.38884	3e-06
25	O	0.751047	0.437958	5e-06
26	C	0.725273	0.345012	6e-06
27	C	0.777349	0.355589	5e-06
28	N	0.820184	0.411474	0
29	C	0.679117	0.288479	4e-06
30	O	0.690097	0.250579	7e-06
31	C	0.621621	0.275824	0.999999
32	C	0.58094	0.22425	0.999998
33	N	0.589362	0.178468	0
34	H	0.67981	0.461623	1e-06
35	H	0.788481	0.324196	8e-06
36	H	0.539598	0.216885	0.999997
37	C	0.442289	0.556306	0
38	C	0.489372	0.604443	0.042203
39	C	0.515044	0.599187	0.211517
40	C	0.487143	0.547052	0.289508
41	C	0.500347	0.527347	0.457593
42	C	0.51644	0.489339	0.460906
43	C	0.52357	0.463597	0.296626
44	C	0.493261	0.409069	0.242912
45	C	0.51267	0.397587	0.06955
46	C	0.557711	0.443694	0
47	S	0.577085	0.499685	0.138437
48	S	0.428354	0.50572	0.159092
49	H	0.50494	0.641516	0.957992
50	H	0.552831	0.632018	0.271976
51	H	0.49759	0.545216	0.592176
52	H	0.524172	0.476417	0.598543
53	H	0.458049	0.378797	0.323322
54	H	0.494323	0.357751	0.001676
55	C	0.443311	0.887106	0
56	C	0.394441	0.885783	0.042203
57	C	0.39949	0.916271	0.211517
58	C	0.452203	0.940443	0.289508
59	C	0.471904	0.972967	0.457593
60	C	0.509993	0.026468	0.460906
61	C	0.535826	0.058992	0.296626
62	C	0.590969	0.083164	0.242912
63	C	0.602339	0.113652	0.06955
64	C	0.555531	0.112329	0
65	S	0.499018	0.075939	0.138437
66	S	0.494335	0.923496	0.159092
67	H	0.356997	0.864386	0.957992
68	H	0.366106	0.920957	0.271976
69	H	0.453953	0.95255	0.592176
70	H	0.522922	0.046884	0.598543
71	H	0.621754	0.078478	0.323322
72	H	0.642588	0.135048	0.001676
73	C	0.113538	0.555739	0
74	C	0.115325	0.508924	0.042203
75	C	0.084605	0.483693	0.211517
76	C	0.059793	0.511656	0.289508
77	C	0.026888	0.498836	0.457593
78	C	0.972706	0.483344	0.460906
79	C	0.939743	0.476562	0.296626
80	C	0.914909	0.506918	0.242912
81	C	0.88413	0.487912	0.06955
82	C	0.885898	0.443128	0
83	S	0.923036	0.423526	0.138437
84	S	0.07645	0.569935	0.159092
85	H	0.137202	0.493248	0.957992
86	H	0.080202	0.446175	0.271976
87	H	0.047596	0.501385	0.592176
88	H	0.952045	0.47585	0.598543
89	H	0.919337	0.541877	0.323322
90	H	0.862228	0.506351	0.001676
