data_C138H66N6O6S18_2023-05-13_04:28:54
#******************************************
#
# CIF file created by Zeo++
# Zeo++ is an open source package to
# analyze microporous materials
#
#*******************************************

_cell_length_a		63.777   
_cell_length_b		64.0754   
_cell_length_c		7   
_cell_angle_alpha		90   
_cell_angle_beta		90   
_cell_angle_gamma		119.797   

_symmetry_space_group_name_H-M		'P1'
_symmetry_Int_Tables_number		1
_symmetry_cell_setting		Monoclinic

loop_
_symmetry_equiv_pos_as_xyz
'+x,+y,+z'

loop_
_atom_site_label
_atom_site_type_symbol
_atom_site_fract_x
_atom_site_fract_y
_atom_site_fract_z
1	C	0.357641	0.671756	0.999995
2	O	0.378951	0.675498	0.999991
3	C	0.338357	0.646748	0.999998
4	C	0.34208	0.628316	0
5	N	0.365935	0.632626	0
6	C	0.313713	0.64231	3e-06
7	O	0.296383	0.620756	5e-06
8	C	0.307811	0.661542	6e-06
9	C	0.285132	0.656901	5e-06
10	N	0.266368	0.632377	0
11	C	0.328021	0.686349	4e-06
12	O	0.323332	0.70298	7e-06
13	C	0.353064	0.691903	0.999999
14	C	0.37088	0.714534	0.999998
15	N	0.367323	0.734624	0
16	H	0.327319	0.610372	1e-06
17	H	0.280361	0.670676	8e-06
18	H	0.388883	0.717766	0.999997
19	C	0.642359	0.328244	0.999995
20	O	0.621049	0.324502	0.999991
21	C	0.661643	0.353252	0.999998
22	C	0.65792	0.371684	0
23	N	0.634065	0.367374	0
24	C	0.686287	0.35769	3e-06
25	O	0.703617	0.379244	5e-06
26	C	0.692189	0.338458	6e-06
27	C	0.714868	0.343099	5e-06
28	N	0.733632	0.367623	0
29	C	0.671979	0.313651	4e-06
30	O	0.676668	0.29702	7e-06
31	C	0.646936	0.308097	0.999999
32	C	0.62912	0.285466	0.999998
33	N	0.632677	0.265376	0
34	H	0.672681	0.389628	1e-06
35	H	0.719639	0.329324	8e-06
36	H	0.611117	0.282234	0.999997
37	C	0.619522	0.381761	0
38	C	0.602346	0.379193	0.870061
39	C	0.594729	0.396423	0.902982
40	C	0.606393	0.411484	0.056504
41	C	0.603186	0.430844	0.130562
42	C	0.61809	0.449094	0.253995
43	C	0.609364	0.465234	0.296066
44	C	0.587794	0.459011	0.205467
45	C	0.574484	0.471841	0.215446
46	C	0.584002	0.496114	0.252781
47	C	0.566175	0.503349	0.25116
48	C	0.543294	0.484375	0.215228
49	C	0.520383	0.48457	0.200828
50	C	0.508943	0.479636	0.022105
51	C	0.487739	0.480473	0.996651
52	C	0.477571	0.486509	0.148715
53	C	0.45649	0.487666	0.121512
54	C	0.446348	0.493975	0.271606
55	C	0.456805	0.499292	0.455256
56	C	0.447134	0.506041	0.61107
57	C	0.42556	0.508506	0.592739
58	C	0.401925	0.4921	0.637254
59	C	0.386097	0.501456	0.603061
60	C	0.397984	0.524698	0.532105
61	C	0.387277	0.539348	0.485627
62	C	0.367305	0.538383	0.571325
63	C	0.361273	0.555235	0.491716
64	C	0.376491	0.568649	0.344213
65	C	0.375028	0.586973	0.23236
66	C	0.358303	0.59468	0.253975
67	C	0.36141	0.61275	0.119161
68	C	0.380478	0.618239	0
69	S	0.394549	0.602371	0.04766
70	S	0.398125	0.560537	0.307919
71	S	0.428402	0.534983	0.512018
72	C	0.458259	0.510639	0.790759
73	C	0.478947	0.508912	0.818204
74	C	0.489012	0.502635	0.666641
75	C	0.509847	0.501073	0.694698
76	C	0.520159	0.495041	0.544061
77	C	0.510155	0.490392	0.358724
78	C	0.488667	0.491543	0.330794
79	C	0.478081	0.497791	0.483991
80	S	0.543728	0.458079	0.184769
81	S	0.578624	0.433657	0.069725
82	S	0.626623	0.404277	0.15792
83	H	0.595442	0.365852	0.757377
84	H	0.581276	0.397597	0.816165
85	H	0.634746	0.451128	0.312096
86	H	0.618621	0.48064	0.389731
87	H	0.603049	0.508394	0.277641
88	H	0.569966	0.521628	0.274533
89	H	0.51668	0.475274	0.900363
90	H	0.479344	0.476549	0.856196
91	H	0.447713	0.483818	0.982535
92	H	0.429985	0.494741	0.242223
93	H	0.396243	0.474271	0.692799
94	H	0.366804	0.491417	0.628927
95	H	0.357451	0.526335	0.687864
96	H	0.346264	0.557168	0.541922
97	H	0.344178	0.587719	0.361029
98	H	0.35016	0.621006	0.111917
99	H	0.450879	0.51579	0.910277
100	H	0.487211	0.512651	0.959125
101	H	0.518396	0.504536	0.834469
102	H	0.536264	0.493881	0.575026
103	C	0.61781	0.236353	0
104	C	0.620455	0.22185	0.870061
105	C	0.60321	0.197124	0.902982
106	C	0.588062	0.193711	0.056504
107	C	0.568665	0.171245	0.130562
108	C	0.550306	0.167874	0.253995
109	C	0.534158	0.143131	0.296066
110	C	0.540487	0.127904	0.205467
111	C	0.527677	0.101906	0.215446
112	C	0.503302	0.087186	0.252781
113	C	0.49612	0.062273	0.25116
114	C	0.515238	0.058442	0.215228
115	C	0.515137	0.03549	0.200828
116	C	0.52013	0.02904	0.022105
117	C	0.519378	0.007144	0.996651
118	C	0.513368	0.991033	0.148715
119	C	0.512293	0.96894	0.121512
120	C	0.50601	0.952583	0.271606
121	C	0.500636	0.957675	0.455256
122	C	0.493908	0.941346	0.61107
123	C	0.491525	0.917462	0.592739
124	C	0.508071	0.910325	0.637254
125	C	0.498756	0.885284	0.603061
126	C	0.475403	0.873945	0.532105
127	C	0.460759	0.84872	0.485627
128	C	0.461808	0.829842	0.571325
129	C	0.444937	0.807068	0.491716
130	C	0.431425	0.808825	0.344213
131	C	0.413058	0.789122	0.23236
132	C	0.4054	0.764834	0.253975
133	C	0.387269	0.749924	0.119161
134	C	0.381688	0.763398	0
135	S	0.397541	0.793178	0.04766
136	S	0.43947	0.838393	0.307919
137	S	0.464967	0.893916	0.512018
138	C	0.489253	0.947819	0.790759
139	C	0.4909	0.970088	0.818204
140	C	0.497152	0.986337	0.666641
141	C	0.498633	0.008588	0.694698
142	C	0.504639	0.024839	0.544061
143	C	0.50934	0.019531	0.358724
144	C	0.508274	0.997041	0.330794
145	C	0.502053	0.980303	0.483991
146	S	0.541602	0.085062	0.184769
147	S	0.565944	0.144045	0.069725
148	S	0.595205	0.220984	0.15792
149	H	0.633859	0.228279	0.757377
150	H	0.602089	0.182593	0.816165
151	H	0.548198	0.182393	0.312096
152	H	0.518675	0.136984	0.389731
153	H	0.490912	0.093876	0.277641
154	H	0.477778	0.047834	0.274533
155	H	0.524472	0.04107	0.900363
156	H	0.523346	0.002713	0.856196
157	H	0.516187	0.964054	0.982535
158	H	0.505308	0.935566	0.242223
159	H	0.52597	0.922436	0.692799
160	H	0.5089	0.876119	0.628927
161	H	0.473928	0.832052	0.687864
162	H	0.44306	0.790234	0.541922
163	H	0.412437	0.757736	0.361029
164	H	0.379038	0.730527	0.111917
165	H	0.484119	0.935358	0.910277
166	H	0.487117	0.974573	0.959125
167	H	0.495126	0.013632	0.834469
168	H	0.505736	0.041992	0.575026
169	C	0.762293	0.381513	0
170	C	0.776824	0.398584	0.870061
171	C	0.801685	0.406079	0.902982
172	C	0.80517	0.394432	0.056504
173	C	0.827774	0.397538	0.130562
174	C	0.831229	0.382659	0.253995
175	C	0.856103	0.391261	0.296066
176	C	0.871344	0.412712	0.205467
177	C	0.897463	0.42588	0.215446
178	C	0.912321	0.416327	0.252781
179	C	0.93733	0.434005	0.25116
180	C	0.941093	0.456811	0.215228
181	C	0.964105	0.479568	0.200828
182	C	0.970551	0.490951	0.022105
183	C	0.992508	0.51201	0.996651
184	C	0.008686	0.522086	0.148715
185	C	0.030841	0.54302	0.121512
186	C	0.047268	0.55307	0.271606
187	C	0.042184	0.54266	0.455256
188	C	0.058583	0.552239	0.61107
189	C	0.08254	0.573658	0.592739
190	C	0.089628	0.597202	0.637254
191	C	0.114773	0.612887	0.603061
192	C	0.126238	0.600984	0.532105
193	C	0.151589	0.61156	0.485627
194	C	0.170512	0.631402	0.571325
195	C	0.193415	0.637324	0.491716
196	C	0.191709	0.622153	0.344213
197	C	0.211539	0.623532	0.23236
198	C	0.235921	0.640113	0.253975
199	C	0.250945	0.636953	0.119161
200	C	0.237458	0.61799	0
201	S	0.207536	0.604079	0.04766
202	S	0.16203	0.600698	0.307919
203	S	0.106257	0.570728	0.512018
204	C	0.052113	0.54117	0.790759
205	C	0.029778	0.520627	0.818204
206	C	0.013461	0.510655	0.666641
207	C	0.991145	0.489966	0.694698
208	C	0.974827	0.479748	0.544061
209	C	0.980129	0.489703	0.358724
210	C	0.002683	0.511043	0.330794
211	C	0.019491	0.521533	0.483991
212	S	0.914295	0.456487	0.184769
213	S	0.855057	0.421925	0.069725
214	S	0.777796	0.374366	0.15792
215	H	0.770324	0.405496	0.757377
216	H	0.81626	0.419438	0.816165
217	H	0.816681	0.366106	0.312096
218	H	0.86233	0.382003	0.389731
219	H	0.905665	0.397357	0.277641
220	H	0.951881	0.430165	0.274533
221	H	0.958473	0.483284	0.900363
222	H	0.996935	0.520365	0.856196
223	H	0.035725	0.551755	0.982535
224	H	0.064332	0.56932	0.242223
225	H	0.077412	0.60292	0.692799
226	H	0.123921	0.632092	0.628927
227	H	0.168246	0.64124	0.687864
228	H	0.210301	0.652225	0.541922
229	H	0.24301	0.654172	0.361029
230	H	0.270427	0.648094	0.111917
231	H	0.064627	0.548479	0.910277
232	H	0.025297	0.512403	0.959125
233	H	0.986103	0.48146	0.834469
234	H	0.957625	0.463754	0.575026
