data_C78H36N12O6S12_2023-05-13_09:19:55
#******************************************
#
# CIF file created by Zeo++
# Zeo++ is an open source package to
# analyze microporous materials
#
#*******************************************

_cell_length_a		48.2572   
_cell_length_b		48.5556   
_cell_length_c		7   
_cell_angle_alpha		90   
_cell_angle_beta		90   
_cell_angle_gamma		119.731   

_symmetry_space_group_name_H-M		'P1'
_symmetry_Int_Tables_number		1
_symmetry_cell_setting		Monoclinic

loop_
_symmetry_equiv_pos_as_xyz
'+x,+y,+z'

loop_
_atom_site_label
_atom_site_type_symbol
_atom_site_fract_x
_atom_site_fract_y
_atom_site_fract_z
1	C	0.365449	0.673378	0.999995
2	O	0.393606	0.678313	0.999991
3	C	0.340007	0.640399	0.999998
4	C	0.34496	0.616091	0
5	N	0.376478	0.621775	0
6	C	0.307445	0.634545	3e-06
7	O	0.284579	0.606121	5e-06
8	C	0.299612	0.659908	6e-06
9	C	0.269646	0.653788	5e-06
10	N	0.24489	0.621447	0
11	C	0.326278	0.692623	4e-06
12	O	0.320053	0.714556	7e-06
13	C	0.359365	0.699947	0.999999
14	C	0.382872	0.729793	0.999998
15	N	0.378136	0.756286	0
16	H	0.325483	0.592426	1e-06
17	H	0.263318	0.671954	8e-06
18	H	0.406659	0.734054	0.999997
19	C	0.634551	0.326622	0.999995
20	O	0.606394	0.321687	0.999991
21	C	0.659993	0.359601	0.999998
22	C	0.65504	0.383909	0
23	N	0.623522	0.378225	0
24	C	0.692555	0.365455	3e-06
25	O	0.715421	0.393879	5e-06
26	C	0.700388	0.340092	6e-06
27	C	0.730354	0.346212	5e-06
28	N	0.75511	0.378553	0
29	C	0.673722	0.307377	4e-06
30	O	0.679947	0.285444	7e-06
31	C	0.640635	0.300053	0.999999
32	C	0.617128	0.270207	0.999998
33	N	0.621864	0.243714	0
34	H	0.674517	0.407574	1e-06
35	H	0.736682	0.328046	8e-06
36	H	0.593341	0.265946	0.999997
37	C	0.604276	0.397199	0
38	C	0.59383	0.407497	0.848833
39	C	0.577523	0.423574	0.913145
40	C	0.576129	0.424948	0.110758
41	C	0.561561	0.439309	0.224856
42	C	0.56017	0.440679	0.421651
43	C	0.543858	0.456761	0.485488
44	C	0.532873	0.467592	0.336906
45	C	0.515162	0.485052	0.34334
46	C	0.506531	0.493561	0.513629
47	N	0.490188	0.509672	0.522405
48	C	0.482338	0.517412	0.352297
49	C	0.464694	0.534807	0.367742
50	C	0.455462	0.543908	0.532194
51	C	0.438607	0.560525	0.494763
52	C	0.43505	0.564032	0.301729
53	C	0.419135	0.579722	0.216284
54	C	0.404522	0.594128	0.312323
55	C	0.390952	0.607507	0.187161
56	C	0.395724	0.602801	0
57	S	0.415916	0.582896	0.972859
58	S	0.452496	0.546833	0.170357
59	C	0.490951	0.508921	0.181894
60	N	0.507301	0.492803	0.17377
61	S	0.542836	0.457769	0.121664
62	S	0.594953	0.406389	0.214514
63	H	0.597463	0.403917	0.700266
64	H	0.567325	0.433629	0.8167
65	H	0.570349	0.430645	0.518344
66	H	0.540599	0.459974	0.635269
67	H	0.512417	0.487758	0.651778
68	H	0.46066	0.538783	0.674288
69	H	0.429617	0.569388	0.606684
70	H	0.403442	0.595193	0.46651
71	H	0.378529	0.619753	0.233724
72	H	0.485132	0.514659	0.043284
73	C	0.602264	0.205439	0
74	C	0.591987	0.184843	0.848833
75	C	0.575942	0.152689	0.913145
76	C	0.57457	0.149941	0.110758
77	C	0.560238	0.121217	0.224856
78	C	0.558871	0.118477	0.421651
79	C	0.54282	0.086313	0.485488
80	C	0.532011	0.064653	0.336906
81	C	0.514586	0.029732	0.34334
82	C	0.506094	0.012714	0.513629
83	N	0.490016	0.980492	0.522405
84	C	0.48229	0.965011	0.352297
85	C	0.46493	0.930222	0.367742
86	C	0.455847	0.912019	0.532194
87	C	0.439264	0.878787	0.494763
88	C	0.435764	0.871773	0.301729
89	C	0.420105	0.840393	0.216284
90	C	0.405728	0.81158	0.312323
91	C	0.392375	0.784823	0.187161
92	C	0.397072	0.794233	0
93	S	0.416937	0.834045	0.972859
94	S	0.452929	0.906171	0.170357
95	C	0.490765	0.981995	0.181894
96	N	0.506851	0.014231	0.17377
97	S	0.541814	0.084298	0.121664
98	S	0.593092	0.187058	0.214514
99	H	0.59556	0.192004	0.700266
100	H	0.565907	0.13258	0.8167
101	H	0.568885	0.138546	0.518344
102	H	0.539614	0.079887	0.635269
103	H	0.511886	0.02432	0.651778
104	H	0.460962	0.92227	0.674288
105	H	0.430418	0.86106	0.606684
106	H	0.404664	0.80945	0.46651
107	H	0.380154	0.76033	0.233724
108	H	0.485038	0.970519	0.043284
109	C	0.792964	0.396871	0
110	C	0.813688	0.407169	0.848833
111	C	0.84604	0.423245	0.913145
112	C	0.848805	0.42462	0.110758
113	C	0.877706	0.438982	0.224856
114	C	0.880464	0.440353	0.421651
115	C	0.912826	0.456434	0.485488
116	C	0.93462	0.467264	0.336906
117	C	0.969756	0.484724	0.34334
118	C	0.98688	0.493234	0.513629
119	N	0.0193	0.509345	0.522405
120	C	0.034876	0.517085	0.352297
121	C	0.06988	0.534479	0.367742
122	C	0.088195	0.543581	0.532194
123	C	0.121633	0.560197	0.494763
124	C	0.12869	0.563703	0.301729
125	C	0.160264	0.579393	0.216284
126	C	0.189255	0.5938	0.312323
127	C	0.216177	0.607178	0.187161
128	C	0.206709	0.602473	0
129	S	0.166652	0.582568	0.972859
130	S	0.09408	0.546504	0.170357
131	C	0.017788	0.508593	0.181894
132	N	0.985353	0.492475	0.17377
133	S	0.914854	0.457441	0.121664
134	S	0.811459	0.406062	0.214514
135	H	0.806482	0.403587	0.700266
136	H	0.866273	0.433299	0.8167
137	H	0.860271	0.430318	0.518344
138	H	0.919292	0.459647	0.635269
139	H	0.975201	0.48743	0.651778
140	H	0.077882	0.538455	0.674288
141	H	0.139469	0.56906	0.606684
142	H	0.191398	0.594865	0.46651
143	H	0.240821	0.619425	0.233724
144	H	0.029334	0.51433	0.043284
