data_C84H48N6O6S9_2023-05-11_11:34:36
#******************************************
#
# CIF file created by Zeo++
# Zeo++ is an open source package to
# analyze microporous materials
#
#*******************************************

_cell_length_a		38.3915   
_cell_length_b		38.69   
_cell_length_c		7   
_cell_angle_alpha		90   
_cell_angle_beta		90   
_cell_angle_gamma		119.663   

_symmetry_space_group_name_H-M		'P1'
_symmetry_Int_Tables_number		1
_symmetry_cell_setting		Monoclinic

loop_
_symmetry_equiv_pos_as_xyz
'+x,+y,+z'

loop_
_atom_site_label
_atom_site_type_symbol
_atom_site_fract_x
_atom_site_fract_y
_atom_site_fract_z
1	C	0.37369	0.675083	0.999995
2	O	0.409075	0.681273	0.999991
3	C	0.341768	0.633723	0.999998
4	C	0.348035	0.603237	0
5	N	0.387644	0.610367	0
6	C	0.300848	0.626382	3e-06
7	O	0.272156	0.590734	5e-06
8	C	0.290957	0.65819	6e-06
9	C	0.253302	0.650515	5e-06
10	N	0.222241	0.609955	0
11	C	0.32442	0.69922	4e-06
12	O	0.316556	0.726727	7e-06
13	C	0.365996	0.708405	0.999999
14	C	0.395493	0.745835	0.999998
15	N	0.389493	0.779062	0
16	H	0.323594	0.573559	1e-06
17	H	0.245316	0.673298	8e-06
18	H	0.425385	0.75118	0.999997
19	C	0.62631	0.324917	0.999995
20	O	0.590925	0.318727	0.999991
21	C	0.658232	0.366277	0.999998
22	C	0.651965	0.396763	0
23	N	0.612356	0.389633	0
24	C	0.699152	0.373618	3e-06
25	O	0.727844	0.409266	5e-06
26	C	0.709043	0.34181	6e-06
27	C	0.746698	0.349485	5e-06
28	N	0.777759	0.390045	0
29	C	0.67558	0.30078	4e-06
30	O	0.683444	0.273273	7e-06
31	C	0.634004	0.291595	0.999999
32	C	0.604507	0.254165	0.999998
33	N	0.610507	0.220938	0
34	H	0.676406	0.426441	1e-06
35	H	0.754684	0.326702	8e-06
36	H	0.574615	0.24882	0.999997
37	C	0.411868	0.586571	0
38	C	0.383537	0.593389	0.082761
39	S	0.380655	0.584791	0.322987
40	C	0.417896	0.571873	0.318302
41	C	0.430807	0.560244	0.485766
42	C	0.422766	0.566375	0.66582
43	C	0.441223	0.550926	0.807181
44	C	0.461333	0.534931	0.67869
45	C	0.482988	0.516937	0.754952
46	C	0.487955	0.51317	0.947262
47	S	0.515418	0.490317	0.991599
48	C	0.521615	0.484575	0.751967
49	C	0.543902	0.465767	0.694762
50	C	0.549322	0.459816	0.510148
51	C	0.573194	0.440241	0.492092
52	C	0.58483	0.428613	0.320573
53	C	0.569285	0.425436	0.137995
54	C	0.588132	0.413429	0
55	C	0.617757	0.407598	0.074766
56	S	0.622844	0.416785	0.314607
57	C	0.582449	0.433975	0.669243
58	C	0.565062	0.449412	0.815746
59	C	0.50251	0.500358	0.643894
60	C	0.454858	0.540742	0.496031
61	C	0.43151	0.574278	0.132116
62	H	0.36436	0.602907	0.01534
63	H	0.405852	0.580519	0.709467
64	H	0.462791	0.575171	0.897784
65	H	0.417928	0.527585	0.895588
66	H	0.476958	0.522634	0.067072
67	H	0.538172	0.468182	0.387289
68	H	0.545136	0.431393	0.106415
69	H	0.636706	0.398488	0.001723
70	H	0.599558	0.419721	0.707554
71	H	0.544011	0.425262	0.908281
72	H	0.588865	0.472738	0.90206
73	H	0.502541	0.500021	0.489255
74	H	0.465414	0.532273	0.371435
75	H	0.454855	0.567562	0.093851
76	C	0.413228	0.826653	0
77	C	0.406573	0.791863	0.082761
78	S	0.415228	0.797553	0.322987
79	C	0.42795	0.847212	0.318302
80	C	0.439543	0.871531	0.485766
81	C	0.43344	0.85749	0.66582
82	C	0.448831	0.891086	0.807181
83	C	0.46476	0.926861	0.67869
84	C	0.482686	0.966148	0.754952
85	C	0.486437	0.974803	0.947262
86	S	0.509203	0.024659	0.991599
87	C	0.514929	0.036491	0.751967
88	C	0.533668	0.077212	0.694762
89	C	0.539609	0.088484	0.510148
90	C	0.559107	0.131533	0.492092
91	C	0.570708	0.15459	0.320573
92	C	0.574004	0.142373	0.137995
93	C	0.585936	0.172937	0
94	C	0.591592	0.208026	0.074766
95	S	0.58233	0.203931	0.314607
96	C	0.565338	0.14691	0.669243
97	C	0.549951	0.114383	0.815746
98	C	0.499206	0.001922	0.643894
99	C	0.458967	0.914686	0.496031
100	C	0.425442	0.858287	0.132116
101	H	0.397142	0.763445	0.01534
102	H	0.419347	0.826714	0.709467
103	H	0.424334	0.888335	0.897784
104	H	0.472433	0.891233	0.895588
105	H	0.477005	0.954527	0.067072
106	H	0.531281	0.069147	0.387289
107	H	0.568184	0.112574	0.106415
108	H	0.600613	0.235814	0.001723
109	H	0.579539	0.177987	0.707554
110	H	0.57435	0.117552	0.908281
111	H	0.526362	0.114754	0.90206
112	H	0.499544	0.002287	0.489255
113	H	0.467402	0.933537	0.371435
114	H	0.43203	0.888045	0.093851
115	C	0.174281	0.58616	0
116	C	0.209268	0.614132	0.082761
117	S	0.203495	0.61704	0.322987
118	C	0.153531	0.580298	0.318302
119	C	0.129028	0.567609	0.485766
120	C	0.143171	0.575519	0.66582
121	C	0.109324	0.557371	0.807181
122	C	0.073285	0.537591	0.67869
123	C	0.033703	0.516298	0.754952
124	C	0.024986	0.511411	0.947262
125	S	0.974756	0.484407	0.991599
126	C	0.962834	0.478318	0.751967
127	C	0.921807	0.456404	0.694762
128	C	0.910446	0.451084	0.510148
129	C	0.867076	0.427609	0.492092
130	C	0.843839	0.41618	0.320573
131	C	0.856088	0.431574	0.137995
132	C	0.825309	0.413018	0
133	C	0.790028	0.38376	0.074766
134	S	0.794203	0.378667	0.314607
135	C	0.85159	0.418498	0.669243
136	C	0.884364	0.435589	0.815746
137	C	0.997661	0.497104	0.643894
138	C	0.085552	0.543955	0.496031
139	C	0.142425	0.566818	0.132116
140	H	0.237875	0.633032	0.01534
141	H	0.174178	0.59215	0.709467
142	H	0.112253	0.535877	0.897784
143	H	0.109017	0.580566	0.895588
144	H	0.045414	0.522222	0.067072
145	H	0.929925	0.462054	0.387289
146	H	0.886057	0.455416	0.106415
147	H	0.762058	0.365082	0.001723
148	H	0.82028	0.401675	0.707554
149	H	0.881016	0.45657	0.908281
150	H	0.884151	0.411891	0.90206
151	H	0.997292	0.497075	0.489255
152	H	0.066562	0.533574	0.371435
153	H	0.112492	0.543777	0.093851
