data_C81H42N6O6S12_2023-05-12_22:53:48
#******************************************
#
# CIF file created by Zeo++
# Zeo++ is an open source package to
# analyze microporous materials
#
#*******************************************

_cell_length_a		47.8813   
_cell_length_b		48.1798   
_cell_length_c		7   
_cell_angle_alpha		90   
_cell_angle_beta		90   
_cell_angle_gamma		119.729   

_symmetry_space_group_name_H-M		'P1'
_symmetry_Int_Tables_number		1
_symmetry_cell_setting		Monoclinic

loop_
_symmetry_equiv_pos_as_xyz
'+x,+y,+z'

loop_
_atom_site_label
_atom_site_type_symbol
_atom_site_fract_x
_atom_site_fract_y
_atom_site_fract_z
1	C	0.365701	0.67343	0.999995
2	O	0.394079	0.678404	0.999991
3	C	0.340061	0.640195	0.999998
4	C	0.345053	0.615697	0
5	N	0.376819	0.621426	0
6	C	0.307243	0.634295	3e-06
7	O	0.284199	0.60565	5e-06
8	C	0.299347	0.659855	6e-06
9	C	0.269147	0.653687	5e-06
10	N	0.244198	0.621095	0
11	C	0.326222	0.692825	4e-06
12	O	0.319946	0.714929	7e-06
13	C	0.359568	0.700206	0.999999
14	C	0.383259	0.730284	0.999998
15	N	0.378484	0.756983	0
16	H	0.325424	0.591849	1e-06
17	H	0.262768	0.671995	8e-06
18	H	0.407232	0.734579	0.999997
19	C	0.634299	0.32657	0.999995
20	O	0.605921	0.321596	0.999991
21	C	0.659939	0.359805	0.999998
22	C	0.654947	0.384303	0
23	N	0.623181	0.378574	0
24	C	0.692757	0.365705	3e-06
25	O	0.715801	0.39435	5e-06
26	C	0.700653	0.340145	6e-06
27	C	0.730853	0.346313	5e-06
28	N	0.755802	0.378905	0
29	C	0.673778	0.307175	4e-06
30	O	0.680054	0.285071	7e-06
31	C	0.640432	0.299794	0.999999
32	C	0.616741	0.269716	0.999998
33	N	0.621516	0.243017	0
34	H	0.674576	0.408151	1e-06
35	H	0.737232	0.328005	8e-06
36	H	0.592768	0.265421	0.999997
37	C	0.603783	0.397695	0
38	C	0.587232	0.414005	0.980003
39	C	0.579406	0.421956	0.161558
40	C	0.560497	0.440657	0.192084
41	C	0.553032	0.448245	0.366999
42	C	0.535799	0.465233	0.3488
43	C	0.530307	0.470423	0.160853
44	C	0.513901	0.48653	0.093425
45	C	0.50956	0.49079	0.908177
46	C	0.491429	0.508608	0.888917
47	C	0.48579	0.514157	0.094382
48	C	0.469694	0.52998	0.169951
49	C	0.464214	0.535343	0.357247
50	C	0.446938	0.552338	0.373068
51	C	0.439509	0.559674	0.197184
52	C	0.420582	0.578303	0.164419
53	C	0.409431	0.589254	0.311746
54	S	0.389816	0.608569	0.229884
55	C	0.396217	0.602305	0
56	C	0.412797	0.585991	0.981941
57	S	0.453341	0.54609	0.016126
58	C	0.499074	0.501106	0.2066
59	S	0.546743	0.454001	0.009531
60	C	0.590498	0.411195	0.310181
61	S	0.610109	0.391741	0.23062
62	H	0.58105	0.419934	0.843039
63	H	0.559358	0.442174	0.502969
64	H	0.527764	0.473321	0.470414
65	H	0.517525	0.482968	0.785634
66	H	0.505921	0.531193	0.813103
67	H	0.468724	0.494087	0.813138
68	H	0.4722	0.527467	0.480024
69	H	0.440555	0.558598	0.508245
70	H	0.411604	0.587093	0.463938
71	H	0.419024	0.579883	0.845687
72	H	0.499242	0.500943	0.36075
73	H	0.588284	0.413571	0.462105
74	C	0.601764	0.204444	0
75	C	0.585488	0.171819	0.980003
76	C	0.577551	0.156154	0.161558
77	C	0.558887	0.118814	0.192084
78	C	0.551313	0.103869	0.366999
79	C	0.53436	0.069894	0.3488
80	C	0.529181	0.059288	0.160853
81	C	0.513107	0.027009	0.093425
82	C	0.508855	0.01847	0.908177
83	C	0.491074	0.982779	0.888917
84	C	0.485536	0.971671	0.094382
85	C	0.469745	0.939981	0.169951
86	C	0.464393	0.929216	0.357247
87	C	0.447432	0.895191	0.373068
88	C	0.440111	0.880532	0.197184
89	C	0.421519	0.843245	0.164419
90	C	0.410591	0.821302	0.311746
91	S	0.391315	0.782652	0.229884
92	C	0.397566	0.795226	0
93	C	0.413847	0.827883	0.981941
94	S	0.453668	0.907751	0.016126
95	C	0.498561	0.997818	0.2066
96	S	0.545571	0.09191	0.009531
97	C	0.588289	0.17785	0.310181
98	S	0.607705	0.216635	0.23062
99	H	0.579571	0.159795	0.843039
100	H	0.557372	0.116177	0.502969
101	H	0.526287	0.053886	0.470414
102	H	0.516661	0.034144	0.785634
103	H	0.46833	0.97468	0.813103
104	H	0.505769	0.974718	0.813138
105	H	0.472254	0.944965	0.480024
106	H	0.441185	0.882639	0.508245
107	H	0.412748	0.825606	0.463938
108	H	0.419942	0.84013	0.845687
109	H	0.498723	0.998145	0.36075
110	H	0.585917	0.173293	0.462105
111	C	0.793953	0.397365	0
112	C	0.826781	0.413681	0.980003
113	C	0.842544	0.421394	0.161558
114	C	0.880117	0.440033	0.192084
115	C	0.895155	0.44739	0.366999
116	C	0.929342	0.464377	0.3488
117	C	0.940013	0.469793	0.160853
118	C	0.972493	0.485966	0.093425
119	C	0.981085	0.490244	0.908177
120	C	0.016998	0.508118	0.888917
121	C	0.028175	0.513676	0.094382
122	C	0.060061	0.529543	0.169951
123	C	0.070894	0.534946	0.357247
124	C	0.105131	0.551976	0.373068
125	C	0.119881	0.559298	0.197184
126	C	0.1574	0.577956	0.164419
127	C	0.179479	0.588948	0.311746
128	S	0.21837	0.608284	0.229884
129	C	0.205717	0.601974	0
130	C	0.172857	0.58563	0.981941
131	S	0.092492	0.545663	0.016126
132	C	0.001866	0.500581	0.2066
133	S	0.907187	0.453593	0.009531
134	C	0.820713	0.410459	0.310181
135	S	0.781686	0.391128	0.23062
136	H	0.83888	0.419776	0.843039
137	H	0.882771	0.441154	0.502969
138	H	0.945449	0.472297	0.470414
139	H	0.965314	0.482393	0.785634
140	H	0.025249	0.493632	0.813103
141	H	0.025007	0.5307	0.813138
142	H	0.055047	0.527073	0.480024
143	H	0.11776	0.558267	0.508245
144	H	0.175149	0.586806	0.463938
145	H	0.160534	0.579491	0.845687
146	H	0.001536	0.500416	0.36075
147	H	0.825299	0.41264	0.462105
