data_C72H36N6O6S12_2023-05-27_18:13:52
#******************************************
#
# CIF file created by Zeo++
# Zeo++ is an open source package to
# analyze microporous materials
#
#*******************************************

_cell_length_a		29.8189   
_cell_length_b		30.1176   
_cell_length_c		7   
_cell_angle_alpha		90   
_cell_angle_beta		90   
_cell_angle_gamma		119.567   

_symmetry_space_group_name_H-M		'P1'
_symmetry_Int_Tables_number		1
_symmetry_cell_setting		Monoclinic

loop_
_symmetry_equiv_pos_as_xyz
'+x,+y,+z'

loop_
_atom_site_label
_atom_site_type_symbol
_atom_site_fract_x
_atom_site_fract_y
_atom_site_fract_z
1	C	0.385271	0.677469	0.999995
2	O	0.430812	0.685412	0.999991
3	C	0.344275	0.624387	0.999998
4	C	0.35242	0.585261	0
5	N	0.403398	0.594411	0
6	C	0.291609	0.614965	3e-06
7	O	0.254757	0.569214	5e-06
8	C	0.278796	0.655788	6e-06
9	C	0.230335	0.645937	5e-06
10	N	0.190445	0.593883	0
11	C	0.321776	0.708446	4e-06
12	O	0.311583	0.743748	7e-06
13	C	0.375282	0.720234	0.999999
14	C	0.413164	0.768272	0.999998
15	N	0.405356	0.810915	0
16	H	0.321027	0.547172	1e-06
17	H	0.219995	0.675177	8e-06
18	H	0.451636	0.775132	0.999997
19	C	0.614729	0.322531	0.999995
20	O	0.569188	0.314588	0.999991
21	C	0.655725	0.375613	0.999998
22	C	0.64758	0.414739	0
23	N	0.596602	0.405589	0
24	C	0.708391	0.385035	3e-06
25	O	0.745243	0.430786	5e-06
26	C	0.721204	0.344212	6e-06
27	C	0.769665	0.354063	5e-06
28	N	0.809555	0.406117	0
29	C	0.678224	0.291554	4e-06
30	O	0.688417	0.256252	7e-06
31	C	0.624718	0.279766	0.999999
32	C	0.586836	0.231728	0.999998
33	N	0.594644	0.189085	0
34	H	0.678973	0.452828	1e-06
35	H	0.780005	0.324823	8e-06
36	H	0.548364	0.224868	0.999997
37	C	0.434646	0.563871	0
38	C	0.451508	0.614092	0.041809
39	C	0.468488	0.62536	0.235529
40	C	0.46382	0.583307	0.333838
41	C	0.477737	0.580678	0.529909
42	C	0.460473	0.537741	0.643913
43	C	0.484674	0.548304	0.82724
44	C	0.476336	0.511872	0.973916
45	C	0.469674	0.464478	0.956508
46	C	0.471736	0.43868	0.787732
47	C	0.439135	0.387247	0.759966
48	S	0.449235	0.366775	0.544844
49	C	0.498464	0.426408	0.486029
50	C	0.525509	0.437926	0.305365
51	C	0.550824	0.485266	0.216833
52	C	0.57383	0.484222	0.039242
53	C	0.565354	0.436129	0
54	S	0.530708	0.392904	0.170477
55	C	0.507077	0.460615	0.632473
56	C	0.517316	0.599835	0.852261
57	S	0.520773	0.634274	0.653284
58	S	0.438632	0.530482	0.186994
59	H	0.451925	0.641577	0.941041
60	H	0.483322	0.662861	0.298792
61	H	0.432173	0.49983	0.596422
62	H	0.475076	0.524359	0.119037
63	H	0.461748	0.442609	0.088428
64	H	0.409035	0.36042	0.853329
65	H	0.552461	0.519354	0.275335
66	H	0.595079	0.517012	0.947403
67	H	0.537138	0.500256	0.626783
68	H	0.540185	0.619301	0.976465
69	C	0.435797	0.871994	0
70	C	0.385145	0.838832	0.041809
71	C	0.373666	0.844401	0.235529
72	C	0.415998	0.881487	0.333838
73	C	0.41852	0.897813	0.529909
74	C	0.461851	0.923358	0.643913
75	C	0.451018	0.936744	0.82724
76	C	0.487728	0.96464	0.973916
77	C	0.535448	0.005055	0.956508
78	C	0.561375	0.032661	0.787732
79	C	0.613382	0.051508	0.759966
80	S	0.633881	0.08176	0.544844
81	C	0.573483	0.071175	0.486029
82	C	0.561665	0.086418	0.305365
83	C	0.513837	0.064445	0.216833
84	C	0.514688	0.08816	0.039242
85	C	0.563126	0.127479	0
86	S	0.606897	0.136175	0.170477
87	C	0.539008	0.045756	0.632473
88	C	0.398911	0.91784	0.852261
89	S	0.364247	0.887108	0.653284
90	S	0.469341	0.909023	0.186994
91	H	0.357502	0.811998	0.941041
92	H	0.335824	0.82185	0.298792
93	H	0.500222	0.933041	0.596422
94	H	0.475182	0.951019	0.119037
95	H	0.55751	0.018921	0.088428
96	H	0.640622	0.04843	0.853329
97	H	0.479542	0.032267	0.275335
98	H	0.481527	0.076602	0.947403
99	H	0.498882	0.036094	0.626783
100	H	0.379137	0.921088	0.976465
101	C	0.128756	0.563344	0
102	C	0.162545	0.546284	0.041809
103	C	0.157045	0.529448	0.235529
104	C	0.119382	0.534415	0.333838
105	C	0.102942	0.520718	0.529909
106	C	0.076874	0.53811	0.643913
107	C	0.063507	0.514161	0.82724
108	C	0.035135	0.522697	0.973916
109	C	0.994076	0.529676	0.956508
110	C	0.966088	0.527868	0.787732
111	C	0.946682	0.560454	0.759966
112	S	0.916082	0.550674	0.544844
113	C	0.927251	0.501626	0.486029
114	C	0.912025	0.474865	0.305365
115	C	0.934538	0.449498	0.216833
116	C	0.910681	0.426827	0.039242
117	C	0.870718	0.435601	0
118	S	0.861594	0.47013	0.170477
119	C	0.953114	0.492838	0.632473
120	C	0.082971	0.481534	0.852261
121	S	0.114178	0.477827	0.653284
122	S	0.091226	0.559704	0.186994
123	H	0.189772	0.545634	0.941041
124	H	0.180053	0.514498	0.298792
125	H	0.066804	0.566338	0.596422
126	H	0.048941	0.523831	0.119037
127	H	0.97994	0.53768	0.088428
128	H	0.949541	0.590359	0.853329
129	H	0.967196	0.447588	0.275335
130	H	0.922593	0.405595	0.947403
131	H	0.963179	0.462859	0.626783
132	H	0.079877	0.45882	0.976465
