data_C66H36N12O6S6_2023-05-10_21:15:15
#******************************************
#
# CIF file created by Zeo++
# Zeo++ is an open source package to
# analyze microporous materials
#
#*******************************************

_cell_length_a		41.6747   
_cell_length_b		41.9732   
_cell_length_c		7   
_cell_angle_alpha		90   
_cell_angle_beta		90   
_cell_angle_gamma		119.689   

_symmetry_space_group_name_H-M		'P1'
_symmetry_Int_Tables_number		1
_symmetry_cell_setting		Monoclinic

loop_
_symmetry_equiv_pos_as_xyz
'+x,+y,+z'

loop_
_atom_site_label
_atom_site_type_symbol
_atom_site_fract_x
_atom_site_fract_y
_atom_site_fract_z
1	C	0.370515	0.674427	0.999995
2	O	0.403115	0.680134	0.999991
3	C	0.341087	0.636292	0.999998
4	C	0.346846	0.608184	0
5	N	0.383337	0.614757	0
6	C	0.303387	0.629524	3e-06
7	O	0.276938	0.596655	5e-06
8	C	0.294292	0.658851	6e-06
9	C	0.2596	0.651774	5e-06
10	N	0.230965	0.614378	0
11	C	0.325138	0.696682	4e-06
12	O	0.317908	0.722043	7e-06
13	C	0.363444	0.70515	0.999999
14	C	0.390635	0.739662	0.999998
15	N	0.385124	0.770297	0
16	H	0.324316	0.58082	1e-06
17	H	0.252254	0.672781	8e-06
18	H	0.418174	0.74459	0.999997
19	C	0.629485	0.325573	0.999995
20	O	0.596885	0.319866	0.999991
21	C	0.658913	0.363708	0.999998
22	C	0.653154	0.391816	0
23	N	0.616663	0.385243	0
24	C	0.696613	0.370476	3e-06
25	O	0.723062	0.403345	5e-06
26	C	0.705708	0.341149	6e-06
27	C	0.7404	0.348226	5e-06
28	N	0.769035	0.385622	0
29	C	0.674862	0.303318	4e-06
30	O	0.682092	0.277957	7e-06
31	C	0.636556	0.29485	0.999999
32	C	0.609365	0.260338	0.999998
33	N	0.614876	0.229703	0
34	H	0.675684	0.41918	1e-06
35	H	0.747746	0.327219	8e-06
36	H	0.581826	0.25541	0.999997
37	C	0.405642	0.592817	0
38	C	0.418873	0.579802	0.141873
39	C	0.436514	0.562449	0.050106
40	C	0.45618	0.543104	0.146706
41	C	0.458987	0.540343	0.341054
42	C	0.478339	0.521308	0.38879
43	C	0.489879	0.509956	0.230021
44	C	0.510122	0.490044	0.230021
45	C	0.521663	0.478694	0.38879
46	C	0.541014	0.459658	0.341054
47	C	0.54382	0.456896	0.146706
48	C	0.563486	0.437551	0.050106
49	C	0.566651	0.434436	0.855682
50	N	0.58557	0.415826	0.827078
51	C	0.594358	0.407183	0
52	C	0.581128	0.420199	0.141873
53	S	0.523292	0.477087	0.024607
54	S	0.476707	0.522913	0.024607
55	C	0.433348	0.565563	0.855682
56	N	0.414429	0.584173	0.827078
57	H	0.416129	0.582501	0.293761
58	H	0.447873	0.551275	0.445641
59	H	0.483383	0.516346	0.534564
60	H	0.516619	0.483656	0.534564
61	H	0.552129	0.448726	0.445641
62	H	0.557182	0.44375	0.735387
63	H	0.592067	0.409435	0.6989
64	H	0.583873	0.4175	0.293761
65	H	0.442817	0.556249	0.735387
66	H	0.407932	0.590564	0.6989
67	C	0.407013	0.814177	0
68	C	0.419998	0.840207	0.141873
69	C	0.43731	0.874912	0.050106
70	C	0.456611	0.913603	0.146706
71	C	0.459365	0.919124	0.341054
72	C	0.478357	0.957196	0.38879
73	C	0.489682	0.979899	0.230021
74	C	0.509548	0.019723	0.230021
75	C	0.520873	0.042426	0.38879
76	C	0.539864	0.080497	0.341054
77	C	0.54262	0.086019	0.146706
78	C	0.561921	0.124709	0.050106
79	C	0.565028	0.130936	0.855682
80	N	0.583595	0.168156	0.827078
81	C	0.592218	0.185444	0
82	C	0.579232	0.159414	0.141873
83	S	0.522475	0.045635	0.024607
84	S	0.476756	0.953986	0.024607
85	C	0.434204	0.868685	0.855682
86	N	0.415637	0.831465	0.827078
87	H	0.417305	0.834808	0.293761
88	H	0.448459	0.89726	0.445641
89	H	0.483307	0.967119	0.534564
90	H	0.515922	0.032503	0.534564
91	H	0.55077	0.102361	0.445641
92	H	0.555736	0.112309	0.735387
93	H	0.589971	0.180938	0.6989
94	H	0.581925	0.164813	0.293761
95	H	0.443496	0.887313	0.735387
96	H	0.40926	0.818683	0.6989
97	C	0.186772	0.592438	0
98	C	0.160555	0.579423	0.141873
99	C	0.125603	0.56207	0.050106
100	C	0.086635	0.542725	0.146706
101	C	0.081074	0.539964	0.341054
102	C	0.042731	0.520928	0.38879
103	C	0.019865	0.509577	0.230021
104	C	0.979756	0.489664	0.230021
105	C	0.956891	0.478312	0.38879
106	C	0.918548	0.459277	0.341054
107	C	0.912987	0.456517	0.146706
108	C	0.874019	0.437172	0.050106
109	C	0.867748	0.434059	0.855682
110	N	0.830262	0.415449	0.827078
111	C	0.81285	0.406804	0
112	C	0.839067	0.419819	0.141873
113	S	0.953659	0.476709	0.024607
114	S	0.045963	0.522533	0.024607
115	C	0.131874	0.565184	0.855682
116	N	0.16936	0.583793	0.827078
117	H	0.165993	0.582122	0.293761
118	H	0.103095	0.550896	0.445641
119	H	0.032736	0.515967	0.534564
120	H	0.966885	0.483273	0.534564
121	H	0.896527	0.448344	0.445641
122	H	0.886509	0.443373	0.735387
123	H	0.817388	0.409058	0.6989
124	H	0.833629	0.417118	0.293761
125	H	0.113113	0.55587	0.735387
126	H	0.182233	0.590184	0.6989
