data_C96H42N6O6S18_2023-05-12_20:25:01
#******************************************
#
# CIF file created by Zeo++
# Zeo++ is an open source package to
# analyze microporous materials
#
#*******************************************

_cell_length_a		56.4019   
_cell_length_b		56.7003   
_cell_length_c		7   
_cell_angle_alpha		90   
_cell_angle_beta		90   
_cell_angle_gamma		119.77   

_symmetry_space_group_name_H-M		'P1'
_symmetry_Int_Tables_number		1
_symmetry_cell_setting		Monoclinic

loop_
_symmetry_equiv_pos_as_xyz
'+x,+y,+z'

loop_
_atom_site_label
_atom_site_type_symbol
_atom_site_fract_x
_atom_site_fract_y
_atom_site_fract_z
1	C	0.360816	0.672416	0.999995
2	O	0.38491	0.676644	0.999991
3	C	0.339026	0.644164	0.999998
4	C	0.343247	0.623339	0
5	N	0.370218	0.628209	0
6	C	0.311162	0.639149	3e-06
7	O	0.291579	0.614798	5e-06
8	C	0.304477	0.660877	6e-06
9	C	0.278835	0.655633	5e-06
10	N	0.257632	0.627928	0
11	C	0.327315	0.688903	4e-06
12	O	0.322003	0.707693	7e-06
13	C	0.355628	0.695177	0.999999
14	C	0.375761	0.720746	0.999998
15	N	0.371726	0.743442	0
16	H	0.326567	0.603066	1e-06
17	H	0.273432	0.671196	8e-06
18	H	0.396116	0.724397	0.999997
19	C	0.639184	0.327584	0.999995
20	O	0.61509	0.323356	0.999991
21	C	0.660974	0.355836	0.999998
22	C	0.656753	0.376661	0
23	N	0.629782	0.371791	0
24	C	0.688838	0.360851	3e-06
25	O	0.708421	0.385202	5e-06
26	C	0.695523	0.339123	6e-06
27	C	0.721165	0.344367	5e-06
28	N	0.742368	0.372072	0
29	C	0.672685	0.311097	4e-06
30	O	0.677997	0.292307	7e-06
31	C	0.644372	0.304823	0.999999
32	C	0.624239	0.279254	0.999998
33	N	0.628274	0.256558	0
34	H	0.673433	0.396934	1e-06
35	H	0.726568	0.328804	8e-06
36	H	0.603884	0.275603	0.999997
37	C	0.613328	0.388046	0
38	C	0.589904	0.372636	0.102342
39	S	0.576903	0.39209	0.188524
40	C	0.602728	0.421335	0.087786
41	C	0.604534	0.447608	0.10791
42	C	0.627876	0.47271	0.091685
43	C	0.622749	0.494753	0.117194
44	C	0.595543	0.486254	0.152315
45	C	0.58364	0.503488	0.182453
46	C	0.595251	0.530736	0.135229
47	C	0.578353	0.541993	0.184226
48	C	0.554282	0.523094	0.268263
49	C	0.53334	0.528312	0.332363
50	C	0.515702	0.532717	0.38648
51	C	0.494779	0.537931	0.451064
52	C	0.48033	0.52813	0.618212
53	C	0.460785	0.536869	0.644572
54	C	0.460693	0.553003	0.496301
55	C	0.443563	0.565282	0.480784
56	C	0.430836	0.570723	0.629216
57	C	0.415215	0.582797	0.566465
58	C	0.416054	0.586343	0.37058
59	C	0.402823	0.597965	0.257631
60	C	0.401156	0.598791	0.060244
61	C	0.386672	0.611954	0
62	C	0.377461	0.620978	0.148426
63	S	0.386409	0.613412	0.363455
64	S	0.435959	0.574754	0.267026
65	S	0.484698	0.557354	0.327567
66	S	0.552266	0.492194	0.287824
67	S	0.576745	0.451427	0.152876
68	C	0.620922	0.415893	0.991011
69	H	0.57971	0.35106	0.131222
70	H	0.647977	0.475417	0.063998
71	H	0.638581	0.515893	0.110727
72	H	0.614987	0.542302	0.066838
73	H	0.583706	0.562904	0.158277
74	H	0.483518	0.515311	0.7176
75	H	0.447323	0.531285	0.767127
76	H	0.432671	0.566513	0.777781
77	H	0.403922	0.588521	0.663089
78	H	0.409937	0.590298	0.963417
79	H	0.365992	0.631585	0.14234
80	H	0.638731	0.431237	0.916167
81	C	0.611479	0.223768	0
82	C	0.627043	0.21586	0.102342
83	S	0.607592	0.183593	0.188524
84	C	0.57814	0.180114	0.087786
85	C	0.551781	0.155754	0.10791
86	C	0.526496	0.153933	0.091685
87	C	0.504412	0.126904	0.117194
88	C	0.513061	0.108364	0.152315
89	C	0.495831	0.079396	0.182453
90	C	0.468448	0.063797	0.135229
91	C	0.457236	0.035822	0.184226
92	C	0.476303	0.030745	0.268263
93	C	0.471165	0.004767	0.332363
94	C	0.46683	0.982878	0.38648
95	C	0.461697	0.956923	0.451064
96	C	0.471593	0.952338	0.618212
97	C	0.462919	0.924243	0.644572
98	C	0.446737	0.908091	0.496301
99	C	0.434501	0.87887	0.480784
100	C	0.429103	0.860823	0.629216
101	C	0.417064	0.833301	0.566465
102	C	0.413504	0.830604	0.37058
103	C	0.401909	0.805905	0.257631
104	C	0.401088	0.803428	0.060244
105	C	0.387953	0.775951	0
106	C	0.378945	0.757828	0.148426
107	S	0.386492	0.774239	0.363455
108	S	0.425036	0.861894	0.267026
109	S	0.442262	0.927585	0.327567
110	S	0.507304	0.0595	0.287824
111	S	0.548078	0.124373	0.152876
112	C	0.583515	0.203586	0.991011
113	H	0.648731	0.227219	0.131222
114	H	0.523688	0.171188	0.063998
115	H	0.483135	0.121575	0.110727
116	H	0.456756	0.071871	0.066838
117	H	0.436238	0.02032	0.158277
118	H	0.484435	0.968261	0.7176
119	H	0.468581	0.91644	0.767127
120	H	0.433317	0.866834	0.777781
121	H	0.411376	0.816395	0.663089
122	H	0.409565	0.820596	0.963417
123	H	0.368359	0.735888	0.14234
124	H	0.568042	0.205988	0.916167
125	C	0.774769	0.387765	0
126	C	0.782628	0.411083	0.102342
127	S	0.815081	0.423896	0.188524
128	C	0.818707	0.39813	0.087786
129	C	0.843261	0.396217	0.10791
130	C	0.845204	0.372935	0.091685
131	C	0.872415	0.377922	0.117194
132	C	0.890971	0.404961	0.152315
133	C	0.920105	0.416695	0.182453
134	C	0.935877	0.405045	0.135229
135	C	0.963987	0.421764	0.184226
136	C	0.968991	0.44574	0.268263
137	C	0.99507	0.4665	0.332363
138	C	0.017044	0.483984	0.38648
139	C	0.0431	0.504726	0.451064
140	C	0.047653	0.51911	0.618212
141	C	0.075872	0.538467	0.644572
142	C	0.092146	0.538485	0.496301
143	C	0.121511	0.555427	0.480784
144	C	0.139637	0.568033	0.629216
145	C	0.167297	0.583481	0.566465
146	C	0.170018	0.582632	0.37058
147	C	0.194844	0.595709	0.257631
148	C	0.197332	0.59736	0.060244
149	C	0.224951	0.611673	0
150	C	0.24317	0.620773	0.148426
151	S	0.226675	0.611928	0.363455
152	S	0.138581	0.562931	0.267026
153	S	0.072616	0.514641	0.327567
154	S	0.940007	0.447884	0.287824
155	S	0.874753	0.423779	0.152876
156	C	0.795139	0.3801	0.991011
157	H	0.771135	0.4213	0.131222
158	H	0.827911	0.352974	0.063998
159	H	0.877859	0.362111	0.110727
160	H	0.927833	0.385405	0.066838
161	H	0.979632	0.416355	0.158277
162	H	0.031623	0.516006	0.7176
163	H	0.083672	0.551854	0.767127
164	H	0.133589	0.566232	0.777781
165	H	0.184279	0.594662	0.663089
166	H	0.180074	0.588684	0.963417
167	H	0.265225	0.632106	0.14234
168	H	0.792803	0.362354	0.916167
