data_C72H36N12O6S6_2023-05-29_04:56:25
#******************************************
#
# CIF file created by Zeo++
# Zeo++ is an open source package to
# analyze microporous materials
#
#*******************************************

_cell_length_a		44.0583   
_cell_length_b		44.3568   
_cell_length_c		7   
_cell_angle_alpha		90   
_cell_angle_beta		90   
_cell_angle_gamma		119.706   

_symmetry_space_group_name_H-M		'P1'
_symmetry_Int_Tables_number		1
_symmetry_cell_setting		Monoclinic

loop_
_symmetry_equiv_pos_as_xyz
'+x,+y,+z'

loop_
_atom_site_label
_atom_site_type_symbol
_atom_site_fract_x
_atom_site_fract_y
_atom_site_fract_z
1	C	0.368506	0.674011	0.999995
2	O	0.399344	0.679412	0.999991
3	C	0.340658	0.63792	0.999998
4	C	0.346096	0.611317	0
5	N	0.380615	0.617538	0
6	C	0.304995	0.631514	3e-06
7	O	0.279967	0.600406	5e-06
8	C	0.296402	0.65927	6e-06
9	C	0.263584	0.652572	5e-06
10	N	0.236487	0.617179	0
11	C	0.325591	0.695073	4e-06
12	O	0.31876	0.719076	7e-06
13	C	0.361827	0.703088	0.999999
14	C	0.387558	0.735751	0.999998
15	N	0.382355	0.764745	0
16	H	0.324776	0.585419	1e-06
17	H	0.256642	0.672453	8e-06
18	H	0.413609	0.740415	0.999997
19	C	0.631494	0.325989	0.999995
20	O	0.600656	0.320588	0.999991
21	C	0.659342	0.36208	0.999998
22	C	0.653904	0.388683	0
23	N	0.619385	0.382462	0
24	C	0.695005	0.368486	3e-06
25	O	0.720033	0.399594	5e-06
26	C	0.703598	0.34073	6e-06
27	C	0.736416	0.347428	5e-06
28	N	0.763513	0.382821	0
29	C	0.674409	0.304927	4e-06
30	O	0.68124	0.280924	7e-06
31	C	0.638173	0.296912	0.999999
32	C	0.612442	0.264249	0.999998
33	N	0.617645	0.235255	0
34	H	0.675224	0.414581	1e-06
35	H	0.743358	0.327547	8e-06
36	H	0.586391	0.259585	0.999997
37	C	0.401706	0.596774	0
38	C	0.405512	0.593027	0.191017
39	C	0.42412	0.574706	0.222308
40	C	0.433911	0.565067	0.054377
41	C	0.453284	0.545994	0.029194
42	C	0.461608	0.537809	0.850969
43	C	0.480016	0.519686	0.837366
44	C	0.490232	0.509617	0.002703
45	C	0.509768	0.490384	0.997298
46	C	0.519986	0.480316	0.162635
47	C	0.538394	0.462193	0.149032
48	C	0.546717	0.454008	0.970807
49	C	0.56609	0.434935	0.945623
50	C	0.575884	0.425299	0.777692
51	C	0.594493	0.406978	0.808984
52	C	0.598294	0.403226	0
53	S	0.58016	0.421074	0.139761
54	C	0.535395	0.465162	0.813879
55	N	0.517486	0.482795	0.822122
56	N	0.482514	0.517206	0.177879
57	C	0.464605	0.534838	0.186122
58	S	0.419837	0.578923	0.86024
59	H	0.395693	0.602693	0.303335
60	H	0.429857	0.569058	0.36398
61	H	0.454147	0.545163	0.718503
62	H	0.486236	0.513571	0.697502
63	H	0.513766	0.486432	0.302498
64	H	0.545856	0.454839	0.281495
65	H	0.570151	0.43095	0.636021
66	H	0.604313	0.397314	0.696665
67	H	0.540387	0.460254	0.668432
68	H	0.459612	0.539744	0.331569
69	C	0.403074	0.806274	0
70	C	0.406813	0.813767	0.191017
71	C	0.425094	0.850409	0.222308
72	C	0.434711	0.869687	0.054377
73	C	0.453743	0.907834	0.029194
74	C	0.461909	0.924213	0.850969
75	C	0.479993	0.960459	0.837366
76	C	0.49004	0.980587	0.002703
77	C	0.509232	0.019055	0.997298
78	C	0.519278	0.039182	0.162635
79	C	0.537361	0.075428	0.149032
80	C	0.545528	0.091807	0.970807
81	C	0.56456	0.129954	0.945623
82	C	0.574174	0.149233	0.777692
83	C	0.592455	0.185874	0.808984
84	C	0.596198	0.193368	0
85	S	0.57839	0.157667	0.139761
86	C	0.534398	0.069507	0.813879
87	N	0.516804	0.034242	0.822122
88	N	0.482468	0.9654	0.177879
89	C	0.464874	0.930135	0.186122
90	S	0.420886	0.841975	0.86024
91	H	0.397168	0.794435	0.303335
92	H	0.430729	0.861705	0.36398
93	H	0.454571	0.909514	0.718503
94	H	0.486095	0.972699	0.697502
95	H	0.513175	0.026942	0.302498
96	H	0.544698	0.090128	0.281495
97	H	0.568535	0.137937	0.636021
98	H	0.602098	0.205206	0.696665
99	H	0.539295	0.079328	0.668432
100	H	0.459979	0.920313	0.331569
101	C	0.194677	0.596415	0
102	C	0.187133	0.592668	0.191017
103	C	0.150243	0.574347	0.222308
104	C	0.130835	0.564708	0.054377
105	C	0.09243	0.545634	0.029194
106	C	0.07594	0.537439	0.850969
107	C	0.039449	0.519316	0.837366
108	C	0.019185	0.509258	0.002703
109	C	0.980457	0.490024	0.997298
110	C	0.960194	0.479964	0.162635
111	C	0.923702	0.461841	0.149032
112	C	0.907212	0.453647	0.970807
113	C	0.868808	0.434573	0.945623
114	C	0.849399	0.42493	0.777692
115	C	0.812509	0.40661	0.808984
116	C	0.804965	0.402868	0
117	S	0.840907	0.420721	0.139761
118	C	0.929664	0.464793	0.813879
119	N	0.965168	0.482426	0.822122
120	N	0.034475	0.516856	0.177879
121	C	0.069978	0.534489	0.186122
122	S	0.158735	0.578564	0.86024
123	H	0.206596	0.602334	0.303335
124	H	0.138871	0.568699	0.36398
125	H	0.090738	0.544784	0.718503
126	H	0.027127	0.513192	0.697502
127	H	0.972516	0.486088	0.302498
128	H	0.908903	0.454494	0.281495
129	H	0.860771	0.430575	0.636021
130	H	0.793047	0.396942	0.696665
131	H	0.919776	0.459879	0.668432
132	H	0.079866	0.539405	0.331569
