data_C102H48N12O6S12_2023-05-11_18:28:01
#******************************************
#
# CIF file created by Zeo++
# Zeo++ is an open source package to
# analyze microporous materials
#
#*******************************************

_cell_length_a		56.3606   
_cell_length_b		56.659   
_cell_length_c		7   
_cell_angle_alpha		90   
_cell_angle_beta		90   
_cell_angle_gamma		119.77   

_symmetry_space_group_name_H-M		'P1'
_symmetry_Int_Tables_number		1
_symmetry_cell_setting		Monoclinic

loop_
_symmetry_equiv_pos_as_xyz
'+x,+y,+z'

loop_
_atom_site_label
_atom_site_type_symbol
_atom_site_fract_x
_atom_site_fract_y
_atom_site_fract_z
1	C	0.360836	0.67242	0.999995
2	O	0.384948	0.676651	0.999991
3	C	0.33903	0.644147	0.999998
4	C	0.343255	0.623307	0
5	N	0.370245	0.628181	0
6	C	0.311146	0.639129	3e-06
7	O	0.291549	0.61476	5e-06
8	C	0.304456	0.660872	6e-06
9	C	0.278795	0.655625	5e-06
10	N	0.257576	0.6279	0
11	C	0.32731	0.68892	4e-06
12	O	0.321994	0.707723	7e-06
13	C	0.355644	0.695198	0.999999
14	C	0.375792	0.720785	0.999998
15	N	0.371754	0.743498	0
16	H	0.326562	0.60302	1e-06
17	H	0.273388	0.6712	8e-06
18	H	0.396161	0.724439	0.999997
19	C	0.639164	0.32758	0.999995
20	O	0.615052	0.323349	0.999991
21	C	0.66097	0.355853	0.999998
22	C	0.656745	0.376693	0
23	N	0.629755	0.371819	0
24	C	0.688854	0.360871	3e-06
25	O	0.708451	0.38524	5e-06
26	C	0.695544	0.339128	6e-06
27	C	0.721205	0.344375	5e-06
28	N	0.742424	0.3721	0
29	C	0.67269	0.31108	4e-06
30	O	0.678006	0.292277	7e-06
31	C	0.644356	0.304802	0.999999
32	C	0.624208	0.279215	0.999998
33	N	0.628246	0.256502	0
34	H	0.673438	0.39698	1e-06
35	H	0.726612	0.3288	8e-06
36	H	0.603839	0.275561	0.999997
37	C	0.613289	0.388086	0
38	C	0.599168	0.402035	0.001409
39	C	0.593891	0.407248	0.192098
40	C	0.578152	0.422796	0.246829
41	C	0.573127	0.42776	0.430443
42	C	0.558431	0.442278	0.434771
43	C	0.552475	0.448163	0.25465
44	C	0.537719	0.462739	0.202168
45	C	0.527504	0.472832	0.340849
46	N	0.51377	0.486399	0.306079
47	C	0.509156	0.490956	0.123571
48	C	0.518745	0.481482	0.971934
49	C	0.532919	0.46748	0.013903
50	C	0.514264	0.485908	0.782102
51	C	0.500294	0.499708	0.740934
52	C	0.490648	0.509239	0.889173
53	C	0.476468	0.523247	0.847787
54	C	0.466568	0.533028	0.992742
55	C	0.451676	0.547738	0.948267
56	C	0.445194	0.554142	0.771697
57	C	0.430524	0.568633	0.7844
58	C	0.426043	0.57306	0.970711
59	C	0.410424	0.58849	0.031782
60	C	0.406173	0.59269	0.220044
61	S	0.388583	0.610067	0.24043
62	C	0.386711	0.611914	0
63	C	0.398994	0.59978	0.903197
64	S	0.439473	0.559793	0.126867
65	C	0.471833	0.527827	0.17718
66	N	0.485419	0.514407	0.222519
67	C	0.494974	0.504967	0.081776
68	S	0.565192	0.435599	0.08312
69	C	0.604346	0.39692	0.325677
70	S	0.62032	0.381139	0.221277
71	H	0.59295	0.408178	0.873074
72	H	0.579467	0.421497	0.557592
73	H	0.55264	0.447998	0.566986
74	H	0.529906	0.47046	0.492375
75	H	0.540151	0.460335	0.89537
76	H	0.521619	0.478641	0.664863
77	H	0.497016	0.502946	0.592306
78	H	0.473281	0.526394	0.698955
79	H	0.450594	0.548807	0.636424
80	H	0.423797	0.575278	0.661154
81	H	0.412399	0.58654	0.348069
82	H	0.39973	0.599053	0.74897
83	H	0.465245	0.534337	0.302572
84	H	0.603593	0.397663	0.479682
85	C	0.611439	0.223688	0
86	C	0.597513	0.195789	0.001409
87	C	0.592309	0.185363	0.192098
88	C	0.576788	0.154268	0.246829
89	C	0.571833	0.14434	0.430443
90	C	0.55734	0.115304	0.434771
91	C	0.551465	0.103535	0.25465
92	C	0.536913	0.074382	0.202168
93	C	0.526838	0.054199	0.340849
94	N	0.513293	0.027063	0.306079
95	C	0.508744	0.017949	0.123571
96	C	0.518202	0.036895	0.971934
97	C	0.53218	0.064899	0.013903
98	C	0.513784	0.028043	0.782102
99	C	0.500007	0.000442	0.740934
100	C	0.490493	0.981382	0.889173
101	C	0.476509	0.953366	0.847787
102	C	0.466745	0.933805	0.992742
103	C	0.452059	0.904384	0.948267
104	C	0.445666	0.891576	0.771697
105	C	0.4312	0.862593	0.7844
106	C	0.426781	0.85374	0.970711
107	C	0.411377	0.82288	0.031782
108	C	0.407184	0.81448	0.220044
109	S	0.389837	0.779727	0.24043
110	C	0.387992	0.776031	0
111	C	0.400106	0.800299	0.903197
112	S	0.440024	0.880274	0.126867
113	C	0.471936	0.944207	0.17718
114	N	0.485334	0.971049	0.222519
115	C	0.494758	0.989927	0.081776
116	S	0.564007	0.128662	0.08312
117	C	0.60262	0.20602	0.325677
118	S	0.618374	0.237581	0.221277
119	H	0.591381	0.183504	0.873074
120	H	0.578085	0.156865	0.557592
121	H	0.551629	0.103863	0.566986
122	H	0.529205	0.058942	0.492375
123	H	0.539313	0.079188	0.89537
124	H	0.521038	0.042575	0.664863
125	H	0.496775	0.993965	0.592306
126	H	0.473367	0.947071	0.698955
127	H	0.450992	0.902245	0.636424
128	H	0.424566	0.849303	0.661154
129	H	0.413324	0.826782	0.348069
130	H	0.400832	0.801753	0.74897
131	H	0.465438	0.93119	0.302572
132	H	0.601878	0.204533	0.479682
133	C	0.774848	0.387804	0
134	C	0.802894	0.401754	0.001409
135	C	0.813375	0.406967	0.192098
136	C	0.844635	0.422515	0.246829
137	C	0.854615	0.427479	0.430443
138	C	0.883805	0.441996	0.434771
139	C	0.895636	0.447881	0.25465
140	C	0.924943	0.462457	0.202168
141	C	0.945234	0.472548	0.340849
142	N	0.972513	0.486116	0.306079
143	C	0.981675	0.490674	0.123571
144	C	0.962629	0.481201	0.971934
145	C	0.934476	0.467199	0.013903
146	C	0.971527	0.485628	0.782102
147	C	0.999274	0.499428	0.740934
148	C	0.018435	0.508958	0.889173
149	C	0.046599	0.522966	0.847787
150	C	0.066263	0.532746	0.992742
151	C	0.09584	0.547456	0.948267
152	C	0.108716	0.55386	0.771697
153	C	0.137852	0.568352	0.7844
154	C	0.146752	0.572779	0.970711
155	C	0.177775	0.588209	0.031782
156	C	0.186219	0.592408	0.220044
157	S	0.221156	0.609785	0.24043
158	C	0.224872	0.611633	0
159	C	0.200476	0.599499	0.903197
160	S	0.120078	0.559511	0.126867
161	C	0.055806	0.527544	0.17718
162	N	0.028823	0.514123	0.222519
163	C	0.009844	0.504684	0.081776
164	S	0.870376	0.435317	0.08312
165	C	0.79261	0.396639	0.325677
166	S	0.760882	0.380859	0.221277
167	H	0.815245	0.407896	0.873074
168	H	0.842024	0.421216	0.557592
169	H	0.895307	0.447717	0.566986
170	H	0.940465	0.470176	0.492375
171	H	0.920112	0.460055	0.89537
172	H	0.956918	0.478362	0.664863
173	H	0.005785	0.502667	0.592306
174	H	0.052927	0.526114	0.698955
175	H	0.09799	0.548526	0.636424
176	H	0.151212	0.574997	0.661154
177	H	0.173853	0.586257	0.348069
178	H	0.199013	0.598772	0.74897
179	H	0.068893	0.534052	0.302572
180	H	0.794104	0.397382	0.479682
