data_C114H48N12O6S24_2023-05-12_15:58:18
#******************************************
#
# CIF file created by Zeo++
# Zeo++ is an open source package to
# analyze microporous materials
#
#*******************************************

_cell_length_a		59.7632   
_cell_length_b		60.0616   
_cell_length_c		7   
_cell_angle_alpha		90   
_cell_angle_beta		90   
_cell_angle_gamma		119.783   

_symmetry_space_group_name_H-M		'P1'
_symmetry_Int_Tables_number		1
_symmetry_cell_setting		Monoclinic

loop_
_symmetry_equiv_pos_as_xyz
'+x,+y,+z'

loop_
_atom_site_label
_atom_site_type_symbol
_atom_site_fract_x
_atom_site_fract_y
_atom_site_fract_z
1	C	0.359272	0.672095	0.999995
2	O	0.382012	0.676087	0.999991
3	C	0.3387	0.64542	0.999998
4	C	0.342679	0.625758	0
5	N	0.368134	0.630356	0
6	C	0.312402	0.640685	3e-06
7	O	0.293915	0.617694	5e-06
8	C	0.306098	0.6612	6e-06
9	C	0.281897	0.656249	5e-06
10	N	0.26188	0.630091	0
11	C	0.327659	0.687662	4e-06
12	O	0.32265	0.705402	7e-06
13	C	0.354381	0.693585	0.999999
14	C	0.373388	0.717726	0.999998
15	N	0.369586	0.739155	0
16	H	0.326932	0.606618	1e-06
17	H	0.276802	0.670943	8e-06
18	H	0.392599	0.721173	0.999997
19	C	0.640728	0.327905	0.999995
20	O	0.617988	0.323913	0.999991
21	C	0.6613	0.35458	0.999998
22	C	0.657321	0.374242	0
23	N	0.631866	0.369644	0
24	C	0.687598	0.359315	3e-06
25	O	0.706085	0.382306	5e-06
26	C	0.693902	0.3388	6e-06
27	C	0.718103	0.343751	5e-06
28	N	0.73812	0.369909	0
29	C	0.672341	0.312338	4e-06
30	O	0.67735	0.294598	7e-06
31	C	0.645619	0.306415	0.999999
32	C	0.626612	0.282274	0.999998
33	N	0.630414	0.260845	0
34	H	0.673068	0.393382	1e-06
35	H	0.723198	0.329057	8e-06
36	H	0.607401	0.278827	0.999997
37	C	0.616341	0.38499	0
38	C	0.625988	0.371729	0.096033
39	S	0.621778	0.372448	0.336864
40	C	0.6069	0.390653	0.313169
41	C	0.597831	0.398537	0.47809
42	C	0.598819	0.39291	0.668405
43	C	0.588007	0.403921	0.792779
44	C	0.578794	0.417823	0.696533
45	C	0.566856	0.431417	0.780964
46	C	0.567262	0.437581	0.971787
47	C	0.553531	0.450894	0.00911
48	C	0.542767	0.454762	0.846581
49	C	0.527836	0.467706	0.839433
50	N	0.522606	0.47636	0.996557
51	C	0.508364	0.488137	0.954056
52	C	0.499453	0.499572	0.085264
53	C	0.485328	0.510958	0.022818
54	C	0.479704	0.511201	0.830056
55	C	0.488545	0.499699	0.698939
56	C	0.50272	0.488364	0.761335
57	S	0.515778	0.473229	0.632973
58	N	0.465632	0.523139	0.787509
59	C	0.460572	0.532001	0.944046
60	C	0.446277	0.545621	0.942319
61	C	0.439627	0.555852	0.09439
62	C	0.425533	0.56817	0.036899
63	C	0.42161	0.567252	0.841724
64	C	0.407985	0.577827	0.738674
65	C	0.39062	0.584304	0.814476
66	C	0.380732	0.594557	0.675427
67	C	0.390651	0.595845	0.494728
68	C	0.385064	0.605159	0.320112
69	C	0.392691	0.603768	0.135437
70	C	0.383659	0.61501	0
71	C	0.36944	0.624796	0.079732
72	S	0.366929	0.620289	0.321482
73	S	0.411955	0.584486	0.498784
74	S	0.435036	0.551122	0.732089
75	S	0.472378	0.52621	0.151171
76	S	0.549535	0.44197	0.651279
77	S	0.583686	0.417263	0.455505
78	C	0.605404	0.39587	0.122036
79	H	0.635264	0.361682	0.037995
80	H	0.606885	0.381336	0.719022
81	H	0.58704	0.401446	0.946374
82	H	0.577061	0.432963	0.081646
83	H	0.551645	0.457445	0.149407
84	H	0.503757	0.499471	0.235929
85	H	0.484233	0.499804	0.548247
86	H	0.444567	0.554798	0.241711
87	H	0.418826	0.577442	0.135973
88	H	0.38493	0.581753	0.963358
89	H	0.366845	0.600588	0.708963
90	H	0.404211	0.595019	0.099206
91	H	0.360397	0.634315	0.009327
92	H	0.596824	0.407005	0.071997
93	C	0.614557	0.229887	0
94	C	0.627813	0.252668	0.096033
95	S	0.62711	0.247772	0.336864
96	C	0.608919	0.214875	0.313169
97	C	0.601052	0.19802	0.47809
98	C	0.606692	0.204604	0.668405
99	C	0.595696	0.182906	0.792779
100	C	0.581795	0.159917	0.696533
101	C	0.568216	0.134531	0.780964
102	C	0.562033	0.128796	0.971787
103	C	0.548743	0.101908	0.00911
104	C	0.54491	0.08737	0.846581
105	C	0.531996	0.059658	0.839433
106	N	0.52334	0.045849	0.996557
107	C	0.511592	0.019983	0.954056
108	C	0.500164	0.999751	0.085264
109	C	0.488807	0.97439	0.022818
110	C	0.488588	0.968563	0.830056
111	C	0.500084	0.988794	0.698939
112	C	0.511389	0.014154	0.761335
113	S	0.526509	0.042186	0.632973
114	N	0.476678	0.942706	0.787509
115	C	0.467813	0.928859	0.944046
116	C	0.454218	0.901107	0.942319
117	C	0.443987	0.884317	0.09439
118	C	0.431696	0.858059	0.036899
119	C	0.432633	0.855078	0.841724
120	C	0.422089	0.831022	0.738674
121	C	0.415668	0.807331	0.814476
122	C	0.40543	0.787306	0.675427
123	C	0.404096	0.795872	0.494728
124	C	0.39478	0.781051	0.320112
125	C	0.396142	0.790009	0.135437
126	C	0.384908	0.769849	0
127	C	0.375156	0.745988	0.079732
128	S	0.379686	0.747981	0.321482
129	S	0.415393	0.828333	0.498784
130	S	0.44875	0.884468	0.732089
131	S	0.473569	0.946347	0.151171
132	S	0.557708	0.106825	0.651279
133	S	0.582336	0.165332	0.455505
134	C	0.603694	0.208195	0.122036
135	H	0.637848	0.271881	0.037995
136	H	0.618263	0.224136	0.719022
137	H	0.598183	0.184411	0.946374
138	H	0.566621	0.143124	0.081646
139	H	0.542181	0.093513	0.149407
140	H	0.500246	0.004124	0.235929
141	H	0.499998	0.984409	0.548247
142	H	0.445022	0.890271	0.241711
143	H	0.422427	0.842169	0.135973
144	H	0.418252	0.804222	0.963358
145	H	0.399442	0.767513	0.708963
146	H	0.404864	0.810157	0.099206
147	H	0.365649	0.727531	0.009327
148	H	0.592566	0.18859	0.071997
149	C	0.768702	0.384725	0
150	C	0.745799	0.375205	0.096033
151	S	0.750711	0.379382	0.336864
152	C	0.78378	0.394074	0.313169
153	C	0.800716	0.403045	0.47809
154	C	0.794089	0.402088	0.668405
155	C	0.815896	0.412775	0.792779
156	C	0.839011	0.421862	0.696533
157	C	0.864527	0.433655	0.780964
158	C	0.870305	0.433225	0.971787
159	C	0.897326	0.4468	0.00911
160	C	0.911922	0.45747	0.846581
161	C	0.939769	0.472239	0.839433
162	N	0.953654	0.477393	0.996557
163	C	0.979644	0.491482	0.954056
164	C	0.999983	0.500279	0.085264
165	C	0.025465	0.514254	0.022818
166	C	0.031308	0.519837	0.830056
167	C	0.010971	0.511109	0.698939
168	C	0.98549	0.497084	0.761335
169	S	0.957313	0.484187	0.632973
170	N	0.05729	0.533756	0.787509
171	C	0.071214	0.538742	0.944046
172	C	0.099104	0.552875	0.942319
173	C	0.115985	0.559433	0.09439
174	C	0.142371	0.573373	0.036899
175	C	0.145357	0.577272	0.841724
176	C	0.169526	0.590754	0.738674
177	C	0.193312	0.607967	0.814476
178	C	0.213438	0.617739	0.675427
179	C	0.204853	0.607885	0.494728
180	C	0.219756	0.613392	0.320112
181	C	0.210767	0.605826	0.135437
182	C	0.231034	0.614744	0
183	C	0.255004	0.628819	0.079732
184	S	0.252985	0.631331	0.321482
185	S	0.172252	0.586783	0.498784
186	S	0.115814	0.564013	0.732089
187	S	0.053653	0.527045	0.151171
188	S	0.892357	0.450807	0.651279
189	S	0.833578	0.417007	0.455505
190	C	0.790502	0.395537	0.122036
191	H	0.726488	0.366039	0.037995
192	H	0.774453	0.394131	0.719022
193	H	0.814377	0.413746	0.946374
194	H	0.855917	0.423516	0.081646
195	H	0.905774	0.448644	0.149407
196	H	0.995597	0.496007	0.235929
197	H	0.015368	0.51539	0.548247
198	H	0.110011	0.554533	0.241711
199	H	0.158347	0.579992	0.135973
200	H	0.196418	0.613627	0.963358
201	H	0.233312	0.631501	0.708963
202	H	0.190525	0.594426	0.099206
203	H	0.273554	0.637756	0.009327
204	H	0.81021	0.404007	0.071997
