data_C78H36N12O6S12_2023-05-12_23:39:19
#******************************************
#
# CIF file created by Zeo++
# Zeo++ is an open source package to
# analyze microporous materials
#
#*******************************************

_cell_length_a		43.1773   
_cell_length_b		43.4758   
_cell_length_c		7   
_cell_angle_alpha		90   
_cell_angle_beta		90   
_cell_angle_gamma		119.7   

_symmetry_space_group_name_H-M		'P1'
_symmetry_Int_Tables_number		1
_symmetry_cell_setting		Monoclinic

loop_
_symmetry_equiv_pos_as_xyz
'+x,+y,+z'

loop_
_atom_site_label
_atom_site_type_symbol
_atom_site_fract_x
_atom_site_fract_y
_atom_site_fract_z
1	C	0.369223	0.67416	0.999995
2	O	0.400689	0.67967	0.999991
3	C	0.340811	0.637339	0.999998
4	C	0.346363	0.610199	0
5	N	0.381586	0.616545	0
6	C	0.304422	0.630803	3e-06
7	O	0.278886	0.599068	5e-06
8	C	0.295649	0.659121	6e-06
9	C	0.262162	0.652287	5e-06
10	N	0.234517	0.616179	0
11	C	0.32543	0.695647	4e-06
12	O	0.318456	0.720135	7e-06
13	C	0.362404	0.703824	0.999999
14	C	0.388656	0.737146	0.999998
15	N	0.383343	0.766726	0
16	H	0.324612	0.583778	1e-06
17	H	0.255077	0.67257	8e-06
18	H	0.415238	0.741905	0.999997
19	C	0.630777	0.32584	0.999995
20	O	0.599311	0.32033	0.999991
21	C	0.659189	0.362661	0.999998
22	C	0.653637	0.389801	0
23	N	0.618414	0.383455	0
24	C	0.695578	0.369197	3e-06
25	O	0.721114	0.400932	5e-06
26	C	0.704351	0.340879	6e-06
27	C	0.737838	0.347713	5e-06
28	N	0.765483	0.383821	0
29	C	0.67457	0.304353	4e-06
30	O	0.681544	0.279865	7e-06
31	C	0.637596	0.296176	0.999999
32	C	0.611344	0.262854	0.999998
33	N	0.616657	0.233274	0
34	H	0.675388	0.416222	1e-06
35	H	0.744923	0.32743	8e-06
36	H	0.584762	0.258095	0.999997
37	C	0.59689	0.404638	0
38	C	0.580845	0.42043	0.096977
39	C	0.583608	0.417712	0.299078
40	C	0.568215	0.432862	0.453993
41	C	0.55011	0.450681	0.41179
42	C	0.538804	0.461809	0.578905
43	C	0.519113	0.48119	0.579007
44	C	0.508629	0.491503	0.743625
45	N	0.490333	0.509509	0.741321
46	C	0.482476	0.517247	0.566478
47	C	0.462786	0.536626	0.560968
48	C	0.452712	0.546542	0.727212
49	S	0.430068	0.568829	0.686093
50	C	0.433104	0.565841	0.444679
51	C	0.417278	0.581417	0.2945
52	C	0.399344	0.599067	0.346068
53	S	0.385348	0.612843	0.151301
54	C	0.40311	0.595362	0
55	C	0.419437	0.579292	0.091568
56	C	0.451118	0.548111	0.396932
57	C	0.492956	0.506938	0.401915
58	N	0.511247	0.488937	0.404117
59	C	0.549242	0.451535	0.742347
60	S	0.571834	0.429299	0.694456
61	C	0.60168	0.399923	0.344713
62	S	0.615093	0.386723	0.145341
63	H	0.567865	0.433206	0.026968
64	H	0.544784	0.455922	0.267707
65	H	0.514405	0.485813	0.885709
66	H	0.457584	0.541747	0.872976
67	H	0.393565	0.604755	0.487829
68	H	0.432179	0.566752	0.016912
69	H	0.455774	0.54353	0.25051
70	H	0.487122	0.512684	0.260075
71	H	0.545108	0.455604	0.890361
72	H	0.60787	0.393831	0.484479
73	C	0.594778	0.19054	0
74	C	0.579021	0.158957	0.096977
75	C	0.581733	0.164394	0.299078
76	C	0.566617	0.134094	0.453993
77	C	0.548838	0.098455	0.41179
78	C	0.537735	0.076201	0.578905
79	C	0.518397	0.03744	0.579007
80	C	0.508107	0.016808	0.743625
81	N	0.490141	0.980794	0.741321
82	C	0.482421	0.965323	0.566478
83	C	0.463084	0.926564	0.560968
84	C	0.45319	0.906732	0.727212
85	S	0.430954	0.86216	0.686093
86	C	0.433935	0.868136	0.444679
87	C	0.418394	0.836984	0.2945
88	C	0.400782	0.801683	0.346068
89	S	0.387037	0.774131	0.151301
90	C	0.40448	0.809094	0
91	C	0.420514	0.841233	0.091568
92	C	0.451625	0.903596	0.396932
93	C	0.492706	0.985946	0.401915
94	N	0.510667	0.02195	0.404117
95	C	0.547986	0.096747	0.742347
96	S	0.570172	0.141219	0.694456
97	C	0.599482	0.19997	0.344713
98	S	0.612653	0.226371	0.145341
99	H	0.566274	0.133406	0.026968
100	H	0.543608	0.087972	0.267707
101	H	0.513784	0.028182	0.885709
102	H	0.457975	0.916323	0.872976
103	H	0.395107	0.790306	0.487829
104	H	0.433026	0.866315	0.016912
105	H	0.456196	0.912759	0.25051
106	H	0.486973	0.974458	0.260075
107	H	0.543926	0.08861	0.890361
108	H	0.605561	0.212154	0.484479
109	C	0.807778	0.404272	0
110	C	0.83958	0.420064	0.096977
111	C	0.834105	0.417345	0.299078
112	C	0.864614	0.432495	0.453993
113	C	0.900499	0.450315	0.41179
114	C	0.922907	0.461442	0.578905
115	C	0.961936	0.480822	0.579007
116	C	0.98271	0.491141	0.743625
117	N	0.018972	0.509149	0.741321
118	C	0.03455	0.516881	0.566478
119	C	0.073576	0.53626	0.560968
120	C	0.093545	0.546176	0.727212
121	S	0.138425	0.568463	0.686093
122	C	0.132408	0.565475	0.444679
123	C	0.163774	0.58105	0.2945
124	C	0.199319	0.598701	0.346068
125	S	0.227061	0.612477	0.151301
126	C	0.191857	0.594995	0
127	C	0.159496	0.578926	0.091568
128	C	0.096703	0.547745	0.396932
129	C	0.013784	0.506567	0.401915
130	N	0.977532	0.488564	0.404117
131	C	0.902219	0.451169	0.742347
132	S	0.85744	0.428933	0.694456
133	C	0.798284	0.399558	0.344713
134	S	0.7717	0.386357	0.145341
135	H	0.865307	0.432839	0.026968
136	H	0.911055	0.455557	0.267707
137	H	0.971256	0.485456	0.885709
138	H	0.083888	0.541381	0.872976
139	H	0.210774	0.60439	0.487829
140	H	0.134241	0.566385	0.016912
141	H	0.087477	0.543163	0.25051
142	H	0.025351	0.512309	0.260075
143	H	0.910412	0.455238	0.890361
144	H	0.786015	0.393466	0.484479
