data_C84H36N12O6S15_2023-05-30_08:13:15
#******************************************
#
# CIF file created by Zeo++
# Zeo++ is an open source package to
# analyze microporous materials
#
#*******************************************

_cell_length_a		48.0903   
_cell_length_b		48.3888   
_cell_length_c		7   
_cell_angle_alpha		90   
_cell_angle_beta		90   
_cell_angle_gamma		119.731   

_symmetry_space_group_name_H-M		'P1'
_symmetry_Int_Tables_number		1
_symmetry_cell_setting		Monoclinic

loop_
_symmetry_equiv_pos_as_xyz
'+x,+y,+z'

loop_
_atom_site_label
_atom_site_type_symbol
_atom_site_fract_x
_atom_site_fract_y
_atom_site_fract_z
1	C	0.365561	0.673401	0.999995
2	O	0.393815	0.678353	0.999991
3	C	0.340031	0.640309	0.999998
4	C	0.345001	0.615917	0
5	N	0.376629	0.621621	0
6	C	0.307355	0.634435	3e-06
7	O	0.284411	0.605913	5e-06
8	C	0.299495	0.659885	6e-06
9	C	0.269426	0.653743	5e-06
10	N	0.244584	0.621292	0
11	C	0.326253	0.692713	4e-06
12	O	0.320006	0.714721	7e-06
13	C	0.359455	0.700061	0.999999
14	C	0.383043	0.73001	0.999998
15	N	0.37829	0.756594	0
16	H	0.325457	0.592171	1e-06
17	H	0.263075	0.671972	8e-06
18	H	0.406912	0.734286	0.999997
19	C	0.634439	0.326599	0.999995
20	O	0.606185	0.321647	0.999991
21	C	0.659969	0.359691	0.999998
22	C	0.654999	0.384083	0
23	N	0.623371	0.378379	0
24	C	0.692645	0.365565	3e-06
25	O	0.715589	0.394087	5e-06
26	C	0.700505	0.340115	6e-06
27	C	0.730574	0.346257	5e-06
28	N	0.755416	0.378708	0
29	C	0.673747	0.307287	4e-06
30	O	0.679994	0.285279	7e-06
31	C	0.640545	0.299939	0.999999
32	C	0.616957	0.26999	0.999998
33	N	0.62171	0.243406	0
34	H	0.674543	0.407829	1e-06
35	H	0.736925	0.328028	8e-06
36	H	0.593088	0.265714	0.999997
37	C	0.395942	0.602582	0
38	C	0.412844	0.587089	0.033684
39	C	0.415633	0.583011	0.233754
40	C	0.43348	0.566208	0.323655
41	C	0.436134	0.562353	0.516675
42	C	0.453659	0.546265	0.554886
43	C	0.464096	0.538659	0.389873
44	C	0.482092	0.521957	0.369604
45	C	0.46895	0.489584	0.418593
46	C	0.486041	0.472938	0.400759
47	C	0.517768	0.487209	0.332381
48	C	0.534958	0.469643	0.315974
49	C	0.545142	0.457196	0.459517
50	C	0.560833	0.44093	0.38665
51	C	0.56182	0.441201	0.189816
52	C	0.577565	0.425234	0.067254
53	C	0.578262	0.425828	0.870015
54	S	0.596966	0.406428	0.778136
55	C	0.604058	0.397418	0
56	C	0.592717	0.408585	0.142992
57	S	0.543782	0.46087	0.095079
58	C	0.532703	0.520105	0.283521
59	N	0.562822	0.538749	0.220592
60	S	0.567534	0.574678	0.186401
61	N	0.53197	0.568807	0.252903
62	C	0.514338	0.537994	0.302701
63	S	0.451944	0.550344	0.190862
64	C	0.400648	0.595716	0.341565
65	S	0.383407	0.612291	0.202106
66	H	0.422719	0.579131	0.921434
67	H	0.4262	0.570523	0.627275
68	H	0.458556	0.540856	0.696945
69	H	0.444372	0.476583	0.471107
70	H	0.473898	0.447826	0.440303
71	H	0.541811	0.459817	0.61017
72	H	0.570773	0.429763	0.476386
73	H	0.568833	0.436616	0.773523
74	H	0.595167	0.405023	0.293288
75	H	0.398731	0.596303	0.495125
76	C	0.39729	0.794672	0
77	C	0.412746	0.826834	0.033684
78	C	0.416823	0.833654	0.233754
79	C	0.433588	0.868055	0.323655
80	C	0.437441	0.874519	0.516675
81	C	0.453491	0.90789	0.554886
82	C	0.461068	0.9258	0.389873
83	C	0.47773	0.960248	0.369604
84	C	0.510287	0.97942	0.418593
85	C	0.526899	0.012915	0.400759
86	C	0.512407	0.030168	0.332381
87	C	0.52994	0.064676	0.315974
88	C	0.542376	0.08715	0.459517
89	C	0.558614	0.11888	0.38665
90	C	0.558336	0.119589	0.189816
91	C	0.574274	0.151075	0.067254
92	C	0.573674	0.151176	0.870015
93	S	0.593041	0.189009	0.778136
94	C	0.602043	0.204999	0
95	C	0.590899	0.182652	0.142992
96	S	0.538696	0.082148	0.095079
97	C	0.479314	0.012253	0.283521
98	N	0.460443	0.023563	0.220592
99	S	0.424363	0.992499	0.186401
100	N	0.430446	0.963088	0.252903
101	C	0.461463	0.976259	0.302701
102	S	0.449408	0.902133	0.190862
103	C	0.404155	0.806165	0.341565
104	S	0.387615	0.772591	0.202106
105	H	0.420678	0.844536	0.921434
106	H	0.429297	0.856547	0.627275
107	H	0.458892	0.918123	0.696945
108	H	0.523467	0.96799	0.471107
109	H	0.552165	0.025856	0.440303
110	H	0.539764	0.081242	0.61017
111	H	0.569766	0.139839	0.476386
112	H	0.562899	0.1311	0.773523
113	H	0.59446	0.188623	0.293288
114	H	0.403576	0.803682	0.495125
115	C	0.206271	0.602253	0
116	C	0.173913	0.585584	0.033684
117	C	0.167047	0.582842	0.233754
118	C	0.132435	0.565243	0.323655
119	C	0.125927	0.562634	0.516675
120	C	0.092353	0.545352	0.554886
121	C	0.074339	0.535048	0.389873
122	C	0.039681	0.517301	0.369604
123	C	0.020265	0.530503	0.418593
124	C	0.986563	0.513653	0.400759
125	C	0.969328	0.482129	0.332381
126	C	0.934605	0.465187	0.315974
127	C	0.911985	0.45516	0.459517
128	C	0.880056	0.439696	0.38665
129	C	0.879347	0.438717	0.189816
130	C	0.847664	0.423197	0.067254
131	C	0.847566	0.422503	0.870015
132	S	0.809496	0.40407	0.778136
133	C	0.793401	0.397089	0
134	C	0.815887	0.408269	0.142992
135	S	0.917024	0.456488	0.095079
136	C	0.987485	0.467148	0.283521
137	N	0.976239	0.437195	0.220592
138	S	0.007606	0.43233	0.186401
139	N	0.037087	0.467611	0.252903
140	C	0.023702	0.485254	0.302701
141	S	0.098152	0.54703	0.190862
142	C	0.1947	0.597625	0.341565
143	S	0.228481	0.614625	0.202106
144	H	0.156106	0.57584	0.921434
145	H	0.144006	0.572436	0.627275
146	H	0.082055	0.540527	0.696945
147	H	0.031664	0.554933	0.471107
148	H	0.97344	0.525825	0.440303
149	H	0.917928	0.458448	0.61017
150	H	0.858964	0.429904	0.476386
151	H	0.86777	0.43179	0.773523
152	H	0.809875	0.40586	0.293288
153	H	0.197195	0.599522	0.495125
