data_C78H36N6O6S15_2023-05-11_16:16:24
#******************************************
#
# CIF file created by Zeo++
# Zeo++ is an open source package to
# analyze microporous materials
#
#*******************************************

_cell_length_a		46.8835   
_cell_length_b		47.182   
_cell_length_c		7   
_cell_angle_alpha		90   
_cell_angle_beta		90   
_cell_angle_gamma		119.724   

_symmetry_space_group_name_H-M		'P1'
_symmetry_Int_Tables_number		1
_symmetry_cell_setting		Monoclinic

loop_
_symmetry_equiv_pos_as_xyz
'+x,+y,+z'

loop_
_atom_site_label
_atom_site_type_symbol
_atom_site_fract_x
_atom_site_fract_y
_atom_site_fract_z
1	C	0.366389	0.673573	0.999995
2	O	0.39537	0.678651	0.999991
3	C	0.340207	0.639636	0.999998
4	C	0.345309	0.614622	0
5	N	0.37775	0.620472	0
6	C	0.306691	0.633613	3e-06
7	O	0.283161	0.604363	5e-06
8	C	0.298625	0.659712	6e-06
9	C	0.267782	0.653414	5e-06
10	N	0.242306	0.620134	0
11	C	0.326067	0.693377	4e-06
12	O	0.319656	0.715947	7e-06
13	C	0.360122	0.700913	0.999999
14	C	0.384314	0.731625	0.999998
15	N	0.379434	0.758888	0
16	H	0.325265	0.590271	1e-06
17	H	0.261266	0.672108	8e-06
18	H	0.408797	0.736011	0.999997
19	C	0.633611	0.326427	0.999995
20	O	0.60463	0.321349	0.999991
21	C	0.659793	0.360364	0.999998
22	C	0.654691	0.385378	0
23	N	0.62225	0.379528	0
24	C	0.693309	0.366387	3e-06
25	O	0.716839	0.395637	5e-06
26	C	0.701375	0.340288	6e-06
27	C	0.732218	0.346586	5e-06
28	N	0.757694	0.379866	0
29	C	0.673933	0.306623	4e-06
30	O	0.680344	0.284053	7e-06
31	C	0.639878	0.299087	0.999999
32	C	0.615686	0.268375	0.999998
33	N	0.620566	0.241112	0
34	H	0.674735	0.409729	1e-06
35	H	0.738734	0.327892	8e-06
36	H	0.591203	0.263989	0.999997
37	C	0.397563	0.600947	0
38	C	0.400759	0.597799	0.807622
39	C	0.418176	0.580637	0.771169
40	C	0.427359	0.571586	0.937652
41	C	0.446864	0.552364	0.94718
42	C	0.456836	0.54254	0.787481
43	S	0.477428	0.522248	0.844943
44	C	0.473236	0.526375	0.084131
45	C	0.487044	0.512767	0.243407
46	C	0.483626	0.516132	0.435886
47	S	0.501205	0.498808	0.571371
48	C	0.513911	0.48629	0.374096
49	C	0.53187	0.468592	0.386162
50	C	0.542907	0.457716	0.234321
51	C	0.559866	0.441004	0.292385
52	C	0.575229	0.425864	0.153392
53	C	0.574085	0.426991	0.956499
54	C	0.589986	0.411322	0.866827
55	C	0.602437	0.399053	0
56	S	0.595425	0.405964	0.227835
57	C	0.561316	0.439576	0.488183
58	S	0.542497	0.458121	0.599156
59	C	0.504478	0.495587	0.208561
60	C	0.456423	0.542942	0.11909
61	S	0.414909	0.583852	0.135666
62	H	0.391296	0.607126	0.697993
63	H	0.423458	0.575434	0.629035
64	H	0.453252	0.546074	0.638784
65	H	0.471718	0.527864	0.506293
66	H	0.538952	0.461612	0.086673
67	H	0.562526	0.438381	0.878218
68	H	0.591981	0.409355	0.713837
69	H	0.572462	0.428594	0.573759
70	H	0.509855	0.490291	0.066935
71	H	0.451112	0.548174	0.261018
72	C	0.398918	0.797937	0
73	C	0.40206	0.804235	0.807622
74	C	0.419187	0.838562	0.771169
75	C	0.42822	0.856661	0.937652
76	C	0.447402	0.895105	0.94718
77	C	0.457206	0.914756	0.787481
78	S	0.477456	0.95534	0.844943
79	C	0.473337	0.947081	0.084131
80	C	0.486918	0.974297	0.243407
81	C	0.483559	0.967563	0.435886
82	S	0.500848	0.002211	0.571371
83	C	0.51334	0.02725	0.374096
84	C	0.531002	0.062646	0.386162
85	C	0.541856	0.084398	0.234321
86	C	0.558533	0.117822	0.292385
87	C	0.573642	0.148102	0.153392
88	C	0.572517	0.145847	0.956499
89	C	0.588154	0.177186	0.866827
90	C	0.600398	0.201726	0
91	S	0.593502	0.187905	0.227835
92	C	0.559958	0.12068	0.488183
93	S	0.541451	0.083589	0.599156
94	C	0.504062	0.008658	0.208561
95	C	0.456804	0.913946	0.11909
96	S	0.415979	0.832126	0.135666
97	H	0.392752	0.785584	0.697993
98	H	0.424379	0.848969	0.629035
99	H	0.453679	0.90769	0.638784
100	H	0.471851	0.944097	0.506293
101	H	0.537967	0.076605	0.086673
102	H	0.561151	0.123067	0.878218
103	H	0.590117	0.181119	0.713837
104	H	0.570917	0.142645	0.573759
105	H	0.509348	0.019252	0.066935
106	H	0.451583	0.90348	0.261018
107	C	0.203009	0.60061	0
108	C	0.196671	0.597459	0.807622
109	C	0.162127	0.580296	0.771169
110	C	0.143912	0.571247	0.937652
111	C	0.105224	0.552025	0.94718
112	C	0.085448	0.542198	0.787481
113	S	0.044606	0.521906	0.844943
114	C	0.052917	0.526037	0.084131
115	C	0.025529	0.51243	0.243407
116	C	0.032305	0.515799	0.435886
117	S	0.997437	0.498475	0.571371
118	C	0.972238	0.485954	0.374096
119	C	0.936618	0.468256	0.386162
120	C	0.914727	0.45738	0.234321
121	C	0.881091	0.440668	0.292385
122	C	0.850619	0.425528	0.153392
123	C	0.852888	0.426655	0.956499
124	C	0.82135	0.410986	0.866827
125	C	0.796654	0.398715	0
126	S	0.810563	0.405625	0.227835
127	C	0.878215	0.439238	0.488183
128	S	0.915542	0.457784	0.599156
129	C	0.990949	0.495249	0.208561
130	C	0.086263	0.542606	0.11909
131	S	0.168603	0.583516	0.135666
132	H	0.215441	0.606785	0.697993
133	H	0.151653	0.575091	0.629035
134	H	0.092559	0.54573	0.638784
135	H	0.05592	0.527533	0.506293
136	H	0.922571	0.461277	0.086673
137	H	0.875813	0.438046	0.878218
138	H	0.817392	0.40902	0.713837
139	H	0.856111	0.428255	0.573759
140	H	0.980288	0.489951	0.066935
141	H	0.096795	0.547839	0.261018
