data_C72H36N6O6S12_2023-05-11_19:21:46
#******************************************
#
# CIF file created by Zeo++
# Zeo++ is an open source package to
# analyze microporous materials
#
#*******************************************

_cell_length_a		31.1485   
_cell_length_b		31.4472   
_cell_length_c		7   
_cell_angle_alpha		90   
_cell_angle_beta		90   
_cell_angle_gamma		119.585   

_symmetry_space_group_name_H-M		'P1'
_symmetry_Int_Tables_number		1
_symmetry_cell_setting		Monoclinic

loop_
_symmetry_equiv_pos_as_xyz
'+x,+y,+z'

loop_
_atom_site_label
_atom_site_type_symbol
_atom_site_fract_x
_atom_site_fract_y
_atom_site_fract_z
1	C	0.383058	0.677014	0.999995
2	O	0.426658	0.684623	0.999991
3	C	0.343793	0.626167	0.999998
4	C	0.351577	0.588689	0
5	N	0.400381	0.597453	0
6	C	0.293371	0.617142	3e-06
7	O	0.258077	0.573318	5e-06
8	C	0.28112	0.656246	6e-06
9	C	0.234724	0.64681	5e-06
10	N	0.196518	0.596948	0
11	C	0.322284	0.706687	4e-06
12	O	0.312539	0.740503	7e-06
13	C	0.37351	0.717978	0.999999
14	C	0.409793	0.763994	0.999998
15	N	0.402333	0.804842	0
16	H	0.32151	0.552204	1e-06
17	H	0.224836	0.674819	8e-06
18	H	0.446625	0.770565	0.999997
19	C	0.616942	0.322986	0.999995
20	O	0.573342	0.315377	0.999991
21	C	0.656207	0.373833	0.999998
22	C	0.648423	0.411311	0
23	N	0.599619	0.402547	0
24	C	0.706629	0.382858	3e-06
25	O	0.741923	0.426682	5e-06
26	C	0.71888	0.343754	6e-06
27	C	0.765276	0.35319	5e-06
28	N	0.803482	0.403052	0
29	C	0.677716	0.293313	4e-06
30	O	0.687461	0.259497	7e-06
31	C	0.62649	0.282022	0.999999
32	C	0.590207	0.236006	0.999998
33	N	0.597667	0.195158	0
34	H	0.67849	0.447796	1e-06
35	H	0.775164	0.325181	8e-06
36	H	0.553375	0.229435	0.999997
37	C	0.430285	0.5682	0
38	C	0.477388	0.575848	0.016761
39	C	0.485374	0.561841	0.201638
40	C	0.444032	0.543929	0.318236
41	C	0.440254	0.526849	0.512839
42	C	0.479108	0.538939	0.637537
43	C	0.4641	0.513429	0.815379
44	C	0.495805	0.516687	0.969564
45	C	0.540106	0.519034	0.96089
46	C	0.565874	0.516386	0.795916
47	C	0.616286	0.544663	0.776933
48	S	0.636804	0.535061	0.563499
49	C	0.578473	0.491778	0.493827
50	C	0.56765	0.467691	0.309751
51	C	0.522409	0.445902	0.216769
52	C	0.523608	0.425143	0.036787
53	C	0.569715	0.4318	0
54	S	0.610926	0.462145	0.175509
55	C	0.544577	0.48462	0.63569
56	C	0.413531	0.484995	0.825915
57	S	0.3852	0.486826	0.619383
58	S	0.396054	0.544798	0.199723
59	H	0.504857	0.590554	0.904489
60	H	0.520028	0.564595	0.245586
61	H	0.51715	0.564491	0.601086
62	H	0.482135	0.517477	0.112145
63	H	0.558956	0.523396	0.096754
64	H	0.642385	0.571353	0.875746
65	H	0.489636	0.445018	0.27393
66	H	0.492283	0.406601	0.941746
67	H	0.505629	0.458167	0.62341
68	H	0.391449	0.462301	0.943051
69	C	0.431496	0.863348	0
70	C	0.423414	0.902227	0.016761
71	C	0.437431	0.923995	0.201638
72	C	0.455783	0.900977	0.318236
73	C	0.472988	0.914189	0.512839
74	C	0.460509	0.940526	0.637537
75	C	0.486282	0.951019	0.815379
76	C	0.482743	0.979062	0.969564
77	C	0.480014	0.020434	0.96089
78	C	0.482462	0.048477	0.795916
79	C	0.453612	0.070162	0.776933
80	S	0.463095	0.099923	0.563499
81	C	0.507098	0.085307	0.493827
82	C	0.531406	0.098519	0.309751
83	C	0.553689	0.075501	0.216769
84	C	0.57455	0.097268	0.036787
85	C	0.567473	0.136147	0
86	S	0.536621	0.146706	0.175509
87	C	0.514576	0.05897	0.63569
88	C	0.515291	0.929334	0.825915
89	S	0.513685	0.899573	0.619383
90	S	0.455309	0.85279	0.199723
91	H	0.4084	0.914739	0.904489
92	H	0.434373	0.955446	0.245586
93	H	0.434502	0.95271	0.601086
94	H	0.482062	0.964794	0.112145
95	H	0.475472	0.034702	0.096754
96	H	0.42656	0.069438	0.875746
97	H	0.554851	0.044049	0.27393
98	H	0.593453	0.084756	0.941746
99	H	0.541497	0.046785	0.62341
100	H	0.538292	0.930058	0.943051
101	C	0.137452	0.567694	0
102	C	0.09843	0.521167	0.016761
103	C	0.076428	0.513407	0.201638
104	C	0.099418	0.554336	0.318236
105	C	0.085991	0.558205	0.512839
106	C	0.059616	0.519778	0.637537
107	C	0.048851	0.534795	0.815379
108	C	0.020686	0.503494	0.969564
109	C	0.979112	0.459775	0.96089
110	C	0.950897	0.434379	0.795916
111	C	0.929335	0.384417	0.776933
112	S	0.899334	0.364258	0.563499
113	C	0.913662	0.422157	0.493827
114	C	0.900177	0.433033	0.309751
115	C	0.923134	0.47784	0.216769
116	C	0.901075	0.476831	0.036787
117	C	0.862044	0.431295	0
118	S	0.851685	0.390391	0.175509
119	C	0.94008	0.455652	0.63569
120	C	0.070412	0.584913	0.825915
121	S	0.100347	0.612843	0.619383
122	S	0.14787	0.601655	0.199723
123	H	0.085976	0.493949	0.904489
124	H	0.044832	0.479201	0.245586
125	H	0.047581	0.482041	0.601086
126	H	0.035036	0.516971	0.112145
127	H	0.964805	0.441145	0.096754
128	H	0.930288	0.358451	0.875746
129	H	0.954746	0.510175	0.27393
130	H	0.913497	0.507885	0.941746
131	H	0.952107	0.49429	0.62341
132	H	0.069493	0.606884	0.943051
