data_C105H51N9O6S18_2023-05-13_01:48:47
#******************************************
#
# CIF file created by Zeo++
# Zeo++ is an open source package to
# analyze microporous materials
#
#*******************************************

_cell_length_a		58.7548   
_cell_length_b		59.0532   
_cell_length_c		7   
_cell_angle_alpha		90   
_cell_angle_beta		90   
_cell_angle_gamma		119.779   

_symmetry_space_group_name_H-M		'P1'
_symmetry_Int_Tables_number		1
_symmetry_cell_setting		Monoclinic

loop_
_symmetry_equiv_pos_as_xyz
'+x,+y,+z'

loop_
_atom_site_label
_atom_site_type_symbol
_atom_site_fract_x
_atom_site_fract_y
_atom_site_fract_z
1	C	0.359717	0.672187	0.999995
2	O	0.382847	0.676247	0.999991
3	C	0.338794	0.645058	0.999998
4	C	0.342842	0.625061	0
5	N	0.368734	0.629738	0
6	C	0.312045	0.640243	3e-06
7	O	0.293242	0.61686	5e-06
8	C	0.305631	0.661107	6e-06
9	C	0.281015	0.656072	5e-06
10	N	0.260656	0.629468	0
11	C	0.32756	0.688019	4e-06
12	O	0.322464	0.706062	7e-06
13	C	0.35474	0.694044	0.999999
14	C	0.374072	0.718596	0.999998
15	N	0.370202	0.74039	0
16	H	0.326827	0.605595	1e-06
17	H	0.275832	0.671016	8e-06
18	H	0.393612	0.722102	0.999997
19	C	0.640283	0.327813	0.999995
20	O	0.617153	0.323753	0.999991
21	C	0.661206	0.354942	0.999998
22	C	0.657158	0.374939	0
23	N	0.631266	0.370262	0
24	C	0.687955	0.359757	3e-06
25	O	0.706758	0.38314	5e-06
26	C	0.694369	0.338893	6e-06
27	C	0.718985	0.343928	5e-06
28	N	0.739344	0.370532	0
29	C	0.67244	0.311981	4e-06
30	O	0.677536	0.293938	7e-06
31	C	0.64526	0.305956	0.999999
32	C	0.625928	0.281404	0.999998
33	N	0.629798	0.25961	0
34	H	0.673173	0.394405	1e-06
35	H	0.724168	0.328984	8e-06
36	H	0.606388	0.277898	0.999997
37	C	0.384526	0.614129	0
38	C	0.368299	0.617703	0.121332
39	S	0.368887	0.606505	0.345256
40	C	0.391043	0.596755	0.279978
41	C	0.400436	0.584702	0.415836
42	C	0.393978	0.579321	0.606848
43	C	0.407039	0.5673	0.697562
44	C	0.423282	0.563514	0.574895
45	C	0.439361	0.552031	0.622495
46	C	0.447463	0.549627	0.803168
47	C	0.462972	0.537189	0.802377
48	C	0.466573	0.530311	0.620924
49	C	0.480966	0.517038	0.562875
50	C	0.480043	0.496883	0.673048
51	C	0.494021	0.484536	0.616983
52	C	0.508939	0.492641	0.450607
53	C	0.52453	0.481259	0.37613
54	C	0.539207	0.487785	0.209951
55	C	0.551949	0.47288	0.18076
56	C	0.546961	0.455035	0.32519
57	C	0.55653	0.436726	0.3432
58	C	0.553497	0.420526	0.495339
59	C	0.565561	0.404996	0.46379
60	C	0.577713	0.409431	0.287722
61	C	0.591837	0.397296	0.207797
62	C	0.603254	0.40112	0.028587
63	C	0.615474	0.385871	0
64	C	0.613426	0.370712	0.15427
65	S	0.596503	0.374958	0.336025
66	S	0.574103	0.432574	0.164163
67	S	0.526713	0.456926	0.493736
68	N	0.510256	0.512222	0.34141
69	C	0.496434	0.523804	0.399232
70	S	0.450721	0.538833	0.454871
71	S	0.422418	0.5749	0.351213
72	C	0.397606	0.602204	0.088568
73	H	0.356156	0.626266	0.090732
74	H	0.380429	0.583696	0.68094
75	H	0.404303	0.561604	0.846564
76	H	0.442719	0.556614	0.931835
77	H	0.471254	0.533718	0.929864
78	H	0.46827	0.490343	0.802403
79	H	0.492856	0.468834	0.704352
80	H	0.540699	0.50278	0.112908
81	H	0.564249	0.475451	0.058112
82	H	0.543126	0.419624	0.625617
83	H	0.565133	0.391212	0.567885
84	H	0.602843	0.414279	0.922601
85	H	0.620928	0.357398	0.170117
86	H	0.498593	0.539472	0.305912
87	H	0.411204	0.597823	0.015323
88	C	0.385785	0.771607	0
89	C	0.382273	0.751939	0.121332
90	S	0.393501	0.763672	0.345256
91	C	0.40318	0.795374	0.279978
92	C	0.415226	0.816698	0.415836
93	C	0.420651	0.815644	0.606848
94	C	0.432648	0.840577	0.697562
95	C	0.436373	0.860472	0.574895
96	C	0.447817	0.887866	0.622495
97	C	0.450192	0.898302	0.803168
98	C	0.462597	0.926082	0.802377
99	C	0.469478	0.936504	0.620924
100	C	0.482725	0.964007	0.562875
101	C	0.502942	0.983156	0.673048
102	C	0.515263	0.009325	0.616983
103	C	0.507068	0.016066	0.450607
104	C	0.518414	0.042875	0.37613
105	C	0.511803	0.050948	0.209951
106	C	0.526695	0.078437	0.18076
107	C	0.544612	0.091252	0.32519
108	C	0.562931	0.118978	0.3432
109	C	0.579191	0.132095	0.495339
110	C	0.594711	0.159533	0.46379
111	C	0.590211	0.167182	0.287722
112	C	0.602317	0.193284	0.207797
113	C	0.598432	0.200812	0.028587
114	C	0.61367	0.228124	0
115	C	0.628882	0.241183	0.15427
116	S	0.624698	0.220155	0.336025
117	S	0.567017	0.140557	0.164163
118	S	0.542806	0.069267	0.493736
119	N	0.487425	0.997879	0.34141
120	C	0.475871	0.972627	0.399232
121	S	0.461003	0.912284	0.454871
122	S	0.424958	0.848278	0.351213
123	C	0.397686	0.796463	0.088568
124	H	0.37374	0.731359	0.090732
125	H	0.416323	0.797837	0.68094
126	H	0.438373	0.843532	0.846564
127	H	0.443206	0.886637	0.931835
128	H	0.466041	0.93776	0.929864
129	H	0.509553	0.97798	0.802403
130	H	0.531015	0.023801	0.704352
131	H	0.496759	0.037502	0.112908
132	H	0.524061	0.088088	0.058112
133	H	0.580141	0.122697	0.625617
134	H	0.608537	0.172831	0.567885
135	H	0.585237	0.187303	0.922601
136	H	0.6422	0.261885	0.170117
137	H	0.460149	0.959172	0.305912
138	H	0.402019	0.814324	0.015323
139	C	0.229282	0.61386	0
140	C	0.249021	0.629953	0.121332
141	S	0.237205	0.629419	0.345256
142	C	0.20537	0.607467	0.279978
143	C	0.183931	0.598196	0.415836
144	C	0.184964	0.604631	0.606848
145	C	0.159906	0.591719	0.697562
146	C	0.139938	0.57561	0.574895
147	C	0.112415	0.559698	0.622495
148	C	0.101938	0.551666	0.803168
149	C	0.074024	0.536325	0.802377
150	C	0.063542	0.53278	0.620924
151	C	0.035902	0.51855	0.562875
152	C	0.016608	0.519557	0.673048
153	C	0.990309	0.505735	0.616983
154	C	0.983586	0.490889	0.450607
155	C	0.95665	0.475462	0.37613
156	C	0.948583	0.460862	0.209951
157	C	0.920949	0.448279	0.18076
158	C	0.908019	0.453309	0.32519
159	C	0.880132	0.443892	0.3432
160	C	0.866906	0.446975	0.495339
161	C	0.83932	0.435066	0.46379
162	C	0.831669	0.422983	0.287722
163	C	0.805439	0.409015	0.207797
164	C	0.797907	0.397664	0.028587
165	C	0.770449	0.385601	0
166	C	0.757285	0.387701	0.15427
167	S	0.778392	0.404483	0.336025
168	S	0.858473	0.426464	0.164163
169	S	0.930074	0.473402	0.493736
170	N	0.001912	0.489494	0.34141
171	C	0.027288	0.503165	0.399232
172	S	0.087869	0.548479	0.454871
173	S	0.152218	0.576417	0.351213
174	C	0.204301	0.600928	0.088568
175	H	0.269697	0.64197	0.090732
176	H	0.202841	0.618062	0.68094
177	H	0.156917	0.594459	0.846564
178	H	0.113668	0.556344	0.931835
179	H	0.062298	0.528118	0.929864
180	H	0.02177	0.531273	0.802403
181	H	0.975723	0.506961	0.704352
182	H	0.962135	0.459314	0.112908
183	H	0.911283	0.436056	0.058112
184	H	0.876326	0.457274	0.625617
185	H	0.825923	0.435552	0.567885
186	H	0.811513	0.398014	0.922601
187	H	0.736465	0.380313	0.170117
188	H	0.040851	0.500952	0.305912
189	H	0.18637	0.587448	0.015323
