data_C120H60N6O6S18_2023-05-12_00:27:29
#******************************************
#
# CIF file created by Zeo++
# Zeo++ is an open source package to
# analyze microporous materials
#
#*******************************************

_cell_length_a		61.8943   
_cell_length_b		62.1927   
_cell_length_c		7   
_cell_angle_alpha		90   
_cell_angle_beta		90   
_cell_angle_gamma		119.79   

_symmetry_space_group_name_H-M		'P1'
_symmetry_Int_Tables_number		1
_symmetry_cell_setting		Monoclinic

loop_
_symmetry_equiv_pos_as_xyz
'+x,+y,+z'

loop_
_atom_site_label
_atom_site_type_symbol
_atom_site_fract_x
_atom_site_fract_y
_atom_site_fract_z
1	C	0.358379	0.671909	0.999995
2	O	0.380337	0.675765	0.999991
3	C	0.338513	0.646147	0.999998
4	C	0.342351	0.627157	0
5	N	0.366931	0.631598	0
6	C	0.313119	0.641574	3e-06
7	O	0.295265	0.619369	5e-06
8	C	0.307035	0.661387	6e-06
9	C	0.283667	0.656606	5e-06
10	N	0.264335	0.631342	0
11	C	0.327857	0.686944	4e-06
12	O	0.323023	0.704077	7e-06
13	C	0.35366	0.692665	0.999999
14	C	0.372016	0.71598	0.999998
15	N	0.368348	0.736676	0
16	H	0.327144	0.608671	1e-06
17	H	0.278749	0.670797	8e-06
18	H	0.390566	0.719309	0.999997
19	C	0.641621	0.328091	0.999995
20	O	0.619663	0.324235	0.999991
21	C	0.661487	0.353853	0.999998
22	C	0.657649	0.372843	0
23	N	0.633069	0.368402	0
24	C	0.686881	0.358426	3e-06
25	O	0.704735	0.380631	5e-06
26	C	0.692965	0.338613	6e-06
27	C	0.716333	0.343394	5e-06
28	N	0.735665	0.368658	0
29	C	0.672143	0.313056	4e-06
30	O	0.676977	0.295923	7e-06
31	C	0.64634	0.307335	0.999999
32	C	0.627984	0.28402	0.999998
33	N	0.631652	0.263324	0
34	H	0.672856	0.391329	1e-06
35	H	0.721251	0.329203	8e-06
36	H	0.609434	0.280691	0.999997
37	C	0.618082	0.383224	0
38	C	0.613857	0.395342	0.146475
39	C	0.595255	0.401583	0.096342
40	C	0.585722	0.415574	0.229679
41	C	0.594335	0.423497	0.411997
42	C	0.58239	0.435605	0.499156
43	C	0.564996	0.436717	0.381403
44	C	0.549652	0.447584	0.427621
45	C	0.544548	0.452903	0.608656
46	C	0.528953	0.463749	0.606419
47	C	0.522586	0.46661	0.423371
48	C	0.506946	0.476907	0.361375
49	C	0.481659	0.460161	0.328203
50	C	0.465721	0.468638	0.271996
51	C	0.474923	0.493966	0.248797
52	C	0.500269	0.511607	0.280584
53	C	0.509914	0.537565	0.257411
54	C	0.494262	0.547852	0.195532
55	C	0.487937	0.550767	0.01255
56	C	0.472234	0.561499	0.010365
57	C	0.466936	0.566637	0.191415
58	C	0.451658	0.577421	0.243072
59	C	0.44733	0.583676	0.423286
60	C	0.431167	0.593922	0.42133
61	C	0.423482	0.595246	0.239424
62	C	0.405548	0.605584	0.187668
63	C	0.395676	0.614511	0.32226
64	S	0.376869	0.624389	0.221201
65	C	0.381918	0.616776	0
66	C	0.397459	0.606951	0.998975
67	S	0.435778	0.584237	0.074069
68	S	0.481444	0.558272	0.361904
69	C	0.535206	0.554312	0.290416
70	C	0.551145	0.545833	0.346544
71	C	0.541941	0.520507	0.369868
72	C	0.516591	0.502866	0.338231
73	S	0.535308	0.456071	0.257058
74	S	0.563475	0.422764	0.166099
75	C	0.586331	0.393823	0.913718
76	S	0.600311	0.379188	0.804774
77	H	0.623563	0.399491	0.281792
78	H	0.608494	0.420943	0.481951
79	H	0.586653	0.443252	0.642173
80	H	0.551494	0.449076	0.738784
81	H	0.522739	0.469187	0.732801
82	H	0.474342	0.440357	0.346438
83	H	0.446144	0.455617	0.246427
84	H	0.461802	0.499882	0.20515
85	H	0.494202	0.54541	0.886008
86	H	0.465255	0.565209	0.879841
87	H	0.455329	0.581124	0.553092
88	H	0.425711	0.599865	0.548829
89	H	0.398364	0.615864	0.475244
90	H	0.402743	0.601044	0.870323
91	H	0.542531	0.574112	0.271845
92	H	0.570733	0.558852	0.371757
93	H	0.555069	0.514582	0.413118
94	H	0.572307	0.395897	0.837046
95	C	0.616336	0.233424	0
96	C	0.604202	0.217161	0.146475
97	C	0.598024	0.192473	0.096342
98	C	0.584035	0.169074	0.229679
99	C	0.576054	0.169738	0.411997
100	C	0.563963	0.145817	0.499156
101	C	0.562922	0.127436	0.381403
102	C	0.55209	0.101377	0.427621
103	C	0.546778	0.091011	0.608656
104	C	0.535968	0.064723	0.606419
105	C	0.533127	0.055552	0.423371
106	C	0.522867	0.029766	0.361375
107	C	0.539766	0.021329	0.328203
108	C	0.531333	0.997059	0.271996
109	C	0.505898	0.980977	0.248797
110	C	0.488102	0.988582	0.280584
111	C	0.462032	0.972311	0.257411
112	C	0.451784	0.946523	0.195532
113	C	0.448888	0.937339	0.01255
114	C	0.438193	0.911057	0.010365
115	C	0.433063	0.900679	0.191415
116	C	0.422315	0.874769	0.243072
117	C	0.416061	0.864242	0.423286
118	C	0.405855	0.837988	0.42133
119	C	0.40456	0.829037	0.239424
120	C	0.39427	0.800932	0.187668
121	C	0.38536	0.782238	0.32226
122	S	0.375535	0.753725	0.221201
123	C	0.383147	0.76632	0
124	C	0.392933	0.791538	0.998975
125	S	0.415547	0.852211	0.074069
126	S	0.44139	0.923418	0.361904
127	C	0.445134	0.980752	0.290416
128	C	0.453568	0.005025	0.346544
129	C	0.479002	0.021104	0.369868
130	C	0.496798	0.013494	0.338231
131	S	0.543641	0.078681	0.257058
132	S	0.576919	0.139821	0.166099
133	C	0.605842	0.191338	0.913718
134	S	0.620457	0.219795	0.804774
135	H	0.600001	0.222669	0.281792
136	H	0.578556	0.186343	0.481951
137	H	0.556278	0.142437	0.642173
138	H	0.550586	0.101721	0.738784
139	H	0.530542	0.053138	0.732801
140	H	0.559654	0.033782	0.346438
141	H	0.544472	0.990583	0.246427
142	H	0.50002	0.962054	0.20515
143	H	0.454232	0.948895	0.886008
144	H	0.434502	0.900433	0.879841
145	H	0.418585	0.874727	0.553092
146	H	0.399918	0.826651	0.548829
147	H	0.383992	0.78356	0.475244
148	H	0.398834	0.802668	0.870323
149	H	0.425249	0.968311	0.271845
150	H	0.440431	0.011514	0.371757
151	H	0.484887	0.040041	0.413118
152	H	0.603821	0.175345	0.837046
153	C	0.765196	0.382968	0
154	C	0.781554	0.387113	0.146475
155	C	0.806335	0.40556	0.096342
156	C	0.829856	0.414968	0.229679
157	C	0.829224	0.406381	0.411997
158	C	0.853261	0.418193	0.499156
159	C	0.871696	0.435463	0.381403
160	C	0.897871	0.450655	0.427621
161	C	0.908288	0.455702	0.608656
162	C	0.934693	0.471143	0.606419
163	C	0.943901	0.477454	0.423371
164	C	0.9698	0.492943	0.361375
165	C	0.978189	0.518126	0.328203
166	C	0.00256	0.533919	0.271996
167	C	0.018793	0.524673	0.248797
168	C	0.011242	0.499427	0.280584
169	C	0.027667	0.489739	0.257411
170	C	0.053568	0.505241	0.195532
171	C	0.062789	0.51151	0.01255
172	C	0.089187	0.527059	0.010365
173	C	0.099615	0.532299	0.191415
174	C	0.125641	0.547427	0.243072
175	C	0.136223	0.551698	0.423286
176	C	0.162591	0.567706	0.42133
177	C	0.171572	0.575333	0.239424
178	C	0.199796	0.5931	0.187668
179	C	0.218578	0.602867	0.32226
180	S	0.24721	0.621502	0.221201
181	C	0.234548	0.61652	0
182	C	0.209221	0.601127	0.998975
183	S	0.148289	0.563168	0.074069
184	S	0.07678	0.517927	0.361904
185	C	0.019274	0.464552	0.290416
186	C	0.9949	0.448758	0.346544
187	C	0.978671	0.458006	0.369868
188	C	0.986225	0.483255	0.338231
189	S	0.920664	0.464864	0.257058
190	S	0.859219	0.437031	0.166099
191	C	0.807441	0.414455	0.913718
192	S	0.778845	0.400633	0.804774
193	H	0.776049	0.377456	0.281792
194	H	0.812564	0.39233	0.481951
195	H	0.856682	0.413927	0.642173
196	H	0.897533	0.44882	0.738784
197	H	0.946332	0.477292	0.732801
198	H	0.965617	0.525477	0.346438
199	H	0.008998	0.553416	0.246427
200	H	0.037792	0.537679	0.20515
201	H	0.051179	0.50531	0.886008
202	H	0.099856	0.533974	0.879841
203	H	0.125699	0.543765	0.553092
204	H	0.173984	0.5731	0.548829
205	H	0.217258	0.600192	0.475244
206	H	0.198036	0.595904	0.870323
207	H	0.031833	0.457193	0.271845
208	H	0.988449	0.42925	0.371757
209	H	0.959657	0.444993	0.413118
210	H	0.823485	0.428374	0.837046
