data_C114H54N6O6S12_2023-05-11_20:21:20
#******************************************
#
# CIF file created by Zeo++
# Zeo++ is an open source package to
# analyze microporous materials
#
#*******************************************

_cell_length_a		50.2084   
_cell_length_b		50.5069   
_cell_length_c		7   
_cell_angle_alpha		90   
_cell_angle_beta		90   
_cell_angle_gamma		119.742   

_symmetry_space_group_name_H-M		'P1'
_symmetry_Int_Tables_number		1
_symmetry_cell_setting		Monoclinic

loop_
_symmetry_equiv_pos_as_xyz
'+x,+y,+z'

loop_
_atom_site_label
_atom_site_type_symbol
_atom_site_fract_x
_atom_site_fract_y
_atom_site_fract_z
1	C	0.364202	0.673119	0.999995
2	O	0.391266	0.677864	0.999991
3	C	0.339743	0.641411	0.999998
4	C	0.344498	0.618039	0
5	N	0.374793	0.623505	0
6	C	0.308444	0.635783	3e-06
7	O	0.286462	0.608454	5e-06
8	C	0.300921	0.660168	6e-06
9	C	0.272119	0.654284	5e-06
10	N	0.248318	0.62319	0
11	C	0.326558	0.691623	4e-06
12	O	0.320579	0.712711	7e-06
13	C	0.35836	0.698665	0.999999
14	C	0.38096	0.72736	0.999998
15	N	0.376413	0.752833	0
16	H	0.325773	0.595287	1e-06
17	H	0.26604	0.67175	8e-06
18	H	0.403823	0.731458	0.999997
19	C	0.635798	0.326881	0.999995
20	O	0.608734	0.322136	0.999991
21	C	0.660257	0.358589	0.999998
22	C	0.655502	0.381961	0
23	N	0.625207	0.376495	0
24	C	0.691556	0.364217	3e-06
25	O	0.713538	0.391546	5e-06
26	C	0.699079	0.339832	6e-06
27	C	0.727881	0.345716	5e-06
28	N	0.751682	0.37681	0
29	C	0.673442	0.308377	4e-06
30	O	0.679421	0.287289	7e-06
31	C	0.64164	0.301335	0.999999
32	C	0.61904	0.27264	0.999998
33	N	0.623587	0.247167	0
34	H	0.674227	0.404713	1e-06
35	H	0.73396	0.32825	8e-06
36	H	0.596177	0.268542	0.999997
37	C	0.606713	0.394738	0
38	C	0.630955	0.403686	0.122903
39	C	0.635353	0.429096	0.236165
40	C	0.614235	0.438205	0.193756
41	C	0.612813	0.465499	0.292833
42	C	0.632872	0.483282	0.433962
43	S	0.625457	0.511067	0.512937
44	C	0.595317	0.499627	0.358305
45	C	0.577791	0.515766	0.355214
46	C	0.554904	0.507862	0.493952
47	C	0.536835	0.521801	0.4995
48	C	0.514199	0.513561	0.63983
49	C	0.496202	0.52736	0.646236
50	C	0.500645	0.549527	0.511845
51	C	0.523163	0.558506	0.367216
52	C	0.528307	0.580943	0.228017
53	C	0.509953	0.596201	0.220241
54	C	0.481289	0.585813	0.140605
55	C	0.470654	0.607146	0.161095
56	C	0.43889	0.602263	0.086796
57	C	0.417399	0.57645	0.992063
58	C	0.390743	0.5782	0.94131
59	C	0.393287	0.605262	0
60	S	0.426724	0.628276	0.113499
61	C	0.491773	0.633113	0.255394
62	S	0.524	0.631701	0.318141
63	C	0.551143	0.588798	0.088994
64	C	0.569296	0.574947	0.083923
65	C	0.591985	0.583246	0.9439
66	C	0.610101	0.569573	0.938166
67	C	0.605653	0.5474	0.072525
68	C	0.582972	0.538244	0.216231
69	C	0.564625	0.552439	0.22103
70	C	0.541509	0.544311	0.362406
71	C	0.591028	0.474995	0.249584
72	S	0.589391	0.416076	0.018227
73	H	0.644901	0.392868	0.132558
74	H	0.653226	0.439833	0.342619
75	H	0.651681	0.481667	0.49657
76	H	0.551227	0.490468	0.599109
77	H	0.510454	0.496319	0.746014
78	H	0.478752	0.520959	0.755986
79	H	0.486229	0.559952	0.522121
80	H	0.468747	0.563795	0.071506
81	H	0.420282	0.557065	0.959578
82	H	0.371082	0.560514	0.86634
83	H	0.490201	0.653102	0.291588
84	H	0.554686	0.606049	0.983068
85	H	0.595788	0.600547	0.838025
86	H	0.62774	0.576172	0.829488
87	H	0.620381	0.537304	0.064006
88	H	0.573	0.464468	0.143684
89	C	0.604742	0.210367	0
90	C	0.595638	0.225502	0.122903
91	C	0.57012	0.204585	0.236165
92	C	0.56109	0.174584	0.193756
93	C	0.533712	0.146021	0.292833
94	C	0.515765	0.148219	0.433962
95	S	0.487925	0.113226	0.512937
96	C	0.499561	0.094722	0.358305
97	C	0.483459	0.06129	0.355214
98	C	0.491508	0.04646	0.493952
99	C	0.477616	0.014677	0.4995
100	C	0.486001	0.000431	0.63983
101	C	0.472249	0.968859	0.646236
102	C	0.449985	0.951212	0.511845
103	C	0.440859	0.964606	0.367216
104	C	0.41832	0.947386	0.228017
105	C	0.403107	0.914009	0.220241
106	C	0.413678	0.895923	0.140605
107	C	0.392329	0.864156	0.161095
108	C	0.397393	0.837518	0.086796
109	C	0.423404	0.841888	0.992063
110	C	0.421786	0.813717	0.94131
111	C	0.39462	0.789318	0
112	S	0.371356	0.799578	0.113499
113	C	0.366165	0.859263	0.255394
114	S	0.367415	0.892622	0.318141
115	C	0.410321	0.962215	0.088994
116	C	0.424123	0.993992	0.083923
117	C	0.415679	0.008234	0.9439
118	C	0.429304	0.039798	0.938166
119	C	0.451575	0.057446	0.072525
120	C	0.460878	0.044066	0.216231
121	C	0.446731	0.011752	0.22103
122	C	0.455007	0.996919	0.362406
123	C	0.524297	0.114973	0.249584
124	S	0.583421	0.171963	0.018227
125	H	0.606419	0.250091	0.132558
126	H	0.559255	0.211624	0.342619
127	H	0.517288	0.168476	0.49657
128	H	0.508979	0.060117	0.599109
129	H	0.50332	0.01387	0.746014
130	H	0.478762	0.957925	0.755986
131	H	0.4396	0.926547	0.522121
132	H	0.435835	0.905391	0.071506
133	H	0.442839	0.864033	0.959578
134	H	0.439633	0.811818	0.86634
135	H	0.346117	0.837818	0.291588
136	H	0.392994	0.948566	0.983068
137	H	0.3983	0.994793	0.838025
138	H	0.422592	0.050723	0.829488
139	H	0.461627	0.082092	0.064006
140	H	0.534953	0.107572	0.143684
141	C	0.788069	0.394422	0
142	C	0.772931	0.370339	0.122903
143	C	0.79405	0.365847	0.236165
144	C	0.824199	0.386739	0.193756
145	C	0.852999	0.388008	0.292833
146	C	0.850887	0.368026	0.433962
147	S	0.886142	0.375234	0.512937
148	C	0.904646	0.405178	0.358305
149	C	0.938274	0.422471	0.355214
150	C	0.953112	0.445205	0.493952
151	C	0.985073	0.463049	0.4995
152	C	0.999324	0.485536	0.63983
153	C	0.031073	0.503309	0.646236
154	C	0.048894	0.498788	0.511845
155	C	0.035502	0.476414	0.367216
156	C	0.052897	0.471198	0.228017
157	C	0.086464	0.489317	0.220241
158	C	0.104557	0.517792	0.140605
159	C	0.136541	0.528226	0.161095
160	C	0.163241	0.559746	0.086796
161	C	0.158721	0.581189	0.992063
162	C	0.186995	0.60761	0.94131
163	C	0.211617	0.604947	0
164	S	0.201443	0.571673	0.113499
165	C	0.141586	0.507151	0.255394
166	S	0.108108	0.475205	0.318141
167	C	0.03806	0.448514	0.088994
168	C	0.006105	0.430588	0.083923
169	C	0.99186	0.408047	0.9439
170	C	0.960119	0.390156	0.938166
171	C	0.942296	0.394682	0.072525
172	C	0.955673	0.417217	0.216231
173	C	0.988168	0.435336	0.22103
174	C	0.003008	0.458297	0.362406
175	C	0.884199	0.409558	0.249584
176	S	0.826712	0.411488	0.018227
177	H	0.748204	0.356568	0.132558
178	H	0.787043	0.34807	0.342619
179	H	0.830554	0.349385	0.49657
180	H	0.939318	0.448942	0.599109
181	H	0.98575	0.489339	0.746014
182	H	0.04201	0.520644	0.755986
183	H	0.073695	0.513028	0.522121
184	H	0.094941	0.530341	0.071506
185	H	0.136402	0.57843	0.959578
186	H	0.188808	0.627195	0.86634
187	H	0.163206	0.508607	0.291588
188	H	0.051844	0.444912	0.983068
189	H	0.005435	0.404187	0.838025
190	H	0.949192	0.372633	0.829488
191	H	0.917516	0.380131	0.064006
192	H	0.89157	0.427488	0.143684
