data_C78H39N9O6S12_2023-05-13_10:29:04
#******************************************
#
# CIF file created by Zeo++
# Zeo++ is an open source package to
# analyze microporous materials
#
#*******************************************

_cell_length_a		47.666   
_cell_length_b		47.9645   
_cell_length_c		7   
_cell_angle_alpha		90   
_cell_angle_beta		90   
_cell_angle_gamma		119.728   

_symmetry_space_group_name_H-M		'P1'
_symmetry_Int_Tables_number		1
_symmetry_cell_setting		Monoclinic

loop_
_symmetry_equiv_pos_as_xyz
'+x,+y,+z'

loop_
_atom_site_label
_atom_site_type_symbol
_atom_site_fract_x
_atom_site_fract_y
_atom_site_fract_z
1	C	0.365847	0.67346	0.999995
2	O	0.394353	0.678456	0.999991
3	C	0.340092	0.640076	0.999998
4	C	0.345107	0.615469	0
5	N	0.377017	0.621223	0
6	C	0.307126	0.634151	3e-06
7	O	0.283979	0.605377	5e-06
8	C	0.299194	0.659825	6e-06
9	C	0.268857	0.653629	5e-06
10	N	0.243796	0.620891	0
11	C	0.326189	0.692942	4e-06
12	O	0.319885	0.715145	7e-06
13	C	0.359685	0.700356	0.999999
14	C	0.383483	0.730569	0.999998
15	N	0.378685	0.757388	0
16	H	0.32539	0.591514	1e-06
17	H	0.262449	0.672019	8e-06
18	H	0.407564	0.734883	0.999997
19	C	0.634153	0.32654	0.999995
20	O	0.605647	0.321544	0.999991
21	C	0.659908	0.359924	0.999998
22	C	0.654893	0.384531	0
23	N	0.622983	0.378777	0
24	C	0.692874	0.365849	3e-06
25	O	0.716021	0.394623	5e-06
26	C	0.700806	0.340175	6e-06
27	C	0.731143	0.346371	5e-06
28	N	0.756204	0.379109	0
29	C	0.673811	0.307058	4e-06
30	O	0.680115	0.284855	7e-06
31	C	0.640315	0.299644	0.999999
32	C	0.616517	0.269431	0.999998
33	N	0.621315	0.242612	0
34	H	0.67461	0.408486	1e-06
35	H	0.737551	0.327981	8e-06
36	H	0.592436	0.265117	0.999997
37	C	0.603498	0.397984	0
38	C	0.60611	0.39541	0.193165
39	S	0.588113	0.41315	0.315502
40	C	0.576661	0.424435	0.108795
41	C	0.558972	0.44187	0.108198
42	C	0.548929	0.451767	0.949086
43	C	0.532012	0.468442	0.996295
44	C	0.529513	0.470907	0.190558
45	C	0.512316	0.487858	0.286514
46	C	0.509459	0.490675	0.480101
47	N	0.492926	0.506972	0.507449
48	C	0.484951	0.514831	0.334298
49	C	0.467464	0.532068	0.317501
50	C	0.4561	0.543265	0.462834
51	C	0.439743	0.55939	0.393516
52	C	0.43879	0.560335	0.196145
53	C	0.424029	0.574887	0.081824
54	C	0.40814	0.590538	0.149473
55	C	0.396502	0.602016	0
56	C	0.403364	0.595269	0.821711
57	S	0.424135	0.574801	0.835299
58	S	0.458007	0.541394	0.099364
59	C	0.496927	0.503025	0.19475
60	S	0.547418	0.45326	0.313233
61	C	0.586773	0.414468	0.949994
62	H	0.617576	0.384109	0.269085
63	H	0.553355	0.447404	0.803389
64	H	0.52232	0.477994	0.891453
65	H	0.517663	0.48259	0.601011
66	H	0.487437	0.512383	0.636584
67	H	0.459109	0.540295	0.613334
68	H	0.429222	0.569758	0.486791
69	H	0.405015	0.593606	0.299729
70	H	0.397335	0.601219	0.684428
71	H	0.494767	0.505154	0.042282
72	H	0.582343	0.418833	0.804326
73	C	0.601474	0.203867	0
74	C	0.604043	0.209015	0.193165
75	S	0.586339	0.173536	0.315502
76	C	0.575076	0.150962	0.108795
77	C	0.557677	0.116092	0.108198
78	C	0.547799	0.096296	0.949086
79	C	0.531158	0.062946	0.996295
80	C	0.528699	0.058018	0.190558
81	C	0.511781	0.024115	0.286514
82	C	0.50897	0.018483	0.480101
83	N	0.492706	0.985889	0.507449
84	C	0.484863	0.97017	0.334298
85	C	0.467661	0.935696	0.317501
86	C	0.456487	0.913298	0.462834
87	C	0.440394	0.881049	0.393516
88	C	0.439451	0.879165	0.196145
89	C	0.424928	0.850063	0.081824
90	C	0.409309	0.818752	0.149473
91	C	0.397853	0.795801	0
92	C	0.404587	0.809312	0.821711
93	S	0.425013	0.850253	0.835299
94	S	0.458353	0.917049	0.099364
95	C	0.496645	0.99378	0.19475
96	S	0.54631	0.093314	0.313233
97	C	0.585023	0.170897	0.949994
98	H	0.615321	0.231619	0.269085
99	H	0.552154	0.105022	0.803389
100	H	0.521625	0.043841	0.891453
101	H	0.517039	0.034654	0.601011
102	H	0.487305	0.975067	0.636584
103	H	0.45945	0.919234	0.613334
104	H	0.430047	0.860311	0.486791
105	H	0.406247	0.812603	0.299729
106	H	0.398649	0.797419	0.684428
107	H	0.494521	0.989522	0.042282
108	H	0.580667	0.162166	0.804326
109	C	0.794526	0.397652	0
110	C	0.789346	0.395077	0.193165
111	S	0.825047	0.412816	0.315502
112	C	0.847762	0.424104	0.108795
113	C	0.88285	0.44154	0.108198
114	C	0.90277	0.451439	0.949086
115	C	0.936328	0.468114	0.996295
116	C	0.941287	0.470577	0.190558
117	C	0.975402	0.487529	0.286514
118	C	0.981069	0.490344	0.480101
119	N	0.013867	0.506641	0.507449
120	C	0.029685	0.514502	0.334298
121	C	0.064374	0.531739	0.317501
122	C	0.086911	0.542939	0.462834
123	C	0.119362	0.559063	0.393516
124	C	0.121258	0.560002	0.196145
125	C	0.150542	0.574552	0.081824
126	C	0.182049	0.590213	0.149473
127	C	0.205143	0.601684	0
128	C	0.191548	0.594921	0.821711
129	S	0.15035	0.574448	0.835299
130	S	0.083138	0.54106	0.099364
131	C	0.005927	0.502697	0.19475
132	S	0.905771	0.452929	0.313233
133	C	0.827702	0.414137	0.949994
134	H	0.766601	0.383774	0.269085
135	H	0.89399	0.447077	0.803389
136	H	0.955553	0.477668	0.891453
137	H	0.964797	0.482258	0.601011
138	H	0.024756	0.512051	0.636584
139	H	0.080939	0.539974	0.613334
140	H	0.14023	0.569433	0.486791
141	H	0.188236	0.593293	0.299729
142	H	0.203515	0.600864	0.684428
143	H	0.010211	0.504826	0.042282
144	H	0.836488	0.418504	0.804326
