data_C102H48N12O6S18_2023-05-12_23:30:35
#******************************************
#
# CIF file created by Zeo++
# Zeo++ is an open source package to
# analyze microporous materials
#
#*******************************************

_cell_length_a		59.4488   
_cell_length_b		59.7472   
_cell_length_c		7   
_cell_angle_alpha		90   
_cell_angle_beta		90   
_cell_angle_gamma		119.782   

_symmetry_space_group_name_H-M		'P1'
_symmetry_Int_Tables_number		1
_symmetry_cell_setting		Monoclinic

loop_
_symmetry_equiv_pos_as_xyz
'+x,+y,+z'

loop_
_atom_site_label
_atom_site_type_symbol
_atom_site_fract_x
_atom_site_fract_y
_atom_site_fract_z
1	C	0.359409	0.672123	0.999995
2	O	0.382269	0.676136	0.999991
3	C	0.338729	0.645309	0.999998
4	C	0.342729	0.625544	0
5	N	0.368319	0.630166	0
6	C	0.312292	0.640549	3e-06
7	O	0.293708	0.617437	5e-06
8	C	0.305954	0.661171	6e-06
9	C	0.281625	0.656195	5e-06
10	N	0.261503	0.629899	0
11	C	0.327628	0.687772	4e-06
12	O	0.322593	0.705605	7e-06
13	C	0.354492	0.693727	0.999999
14	C	0.373599	0.717994	0.999998
15	N	0.369776	0.739536	0
16	H	0.326899	0.606302	1e-06
17	H	0.276503	0.670966	8e-06
18	H	0.392911	0.721459	0.999997
19	C	0.640591	0.327877	0.999995
20	O	0.617731	0.323864	0.999991
21	C	0.661271	0.354691	0.999998
22	C	0.657271	0.374456	0
23	N	0.631681	0.369834	0
24	C	0.687708	0.359451	3e-06
25	O	0.706292	0.382563	5e-06
26	C	0.694046	0.338829	6e-06
27	C	0.718375	0.343805	5e-06
28	N	0.738497	0.370101	0
29	C	0.672372	0.312228	4e-06
30	O	0.677407	0.294395	7e-06
31	C	0.645508	0.306273	0.999999
32	C	0.626401	0.282006	0.999998
33	N	0.630224	0.260464	0
34	H	0.673101	0.393698	1e-06
35	H	0.723497	0.329034	8e-06
36	H	0.607089	0.278541	0.999997
37	C	0.616074	0.385262	0
38	C	0.602708	0.398474	0.010181
39	C	0.598294	0.402836	0.203961
40	C	0.583558	0.417401	0.268452
41	C	0.579364	0.421545	0.455187
42	C	0.565463	0.435286	0.468806
43	C	0.559339	0.441341	0.292445
44	C	0.545458	0.455064	0.252137
45	C	0.539341	0.461113	0.076138
46	C	0.525446	0.474848	0.090154
47	C	0.521026	0.479215	0.276987
48	C	0.507559	0.492527	0.350347
49	C	0.496695	0.503268	0.231305
50	N	0.484207	0.515613	0.296584
51	C	0.482659	0.51714	0.488842
52	C	0.469191	0.530453	0.562205
53	C	0.464771	0.534823	0.749023
54	C	0.450877	0.548557	0.762906
55	C	0.44475	0.554612	0.586901
56	C	0.430785	0.568417	0.552083
57	C	0.420999	0.578088	0.688617
58	C	0.408193	0.590747	0.60824
59	C	0.408475	0.59047	0.411723
60	C	0.396045	0.602757	0.279094
61	C	0.383438	0.615218	0.34848
62	S	0.372078	0.626448	0.168513
63	C	0.383926	0.614738	0
64	C	0.396296	0.60251	0.074847
65	S	0.424058	0.575067	0.327012
66	S	0.456162	0.54333	0.407605
67	C	0.493525	0.506397	0.607869
68	N	0.506018	0.494048	0.542684
69	S	0.534053	0.466336	0.431653
70	S	0.57078	0.430034	0.112632
71	C	0.6086	0.392646	0.33091
72	S	0.623407	0.37801	0.21669
73	H	0.596427	0.404685	0.885847
74	H	0.585754	0.415227	0.578252
75	H	0.560297	0.440391	0.603876
76	H	0.544491	0.456024	0.94096
77	H	0.519136	0.481087	0.966082
78	H	0.497538	0.502437	0.076966
79	H	0.471087	0.528581	0.873038
80	H	0.445724	0.553651	0.897953
81	H	0.422802	0.576305	0.84103
82	H	0.399366	0.599472	0.693059
83	H	0.380155	0.618462	0.495145
84	H	0.405053	0.593855	0.988333
85	H	0.492678	0.507233	0.762191
86	H	0.608355	0.392886	0.485227
87	C	0.614283	0.229343	0
88	C	0.601092	0.202918	0.010181
89	C	0.596738	0.194194	0.203961
90	C	0.582196	0.165062	0.268452
91	C	0.578059	0.156773	0.455187
92	C	0.56434	0.12929	0.468806
93	C	0.558294	0.117182	0.292445
94	C	0.544594	0.089737	0.252137
95	C	0.538555	0.077642	0.076138
96	C	0.524842	0.050173	0.090154
97	C	0.520482	0.041436	0.276987
98	C	0.507192	0.014813	0.350347
99	C	0.496468	0.993333	0.231305
100	N	0.484143	0.968643	0.296584
101	C	0.482619	0.965586	0.488842
102	C	0.469327	0.93896	0.562205
103	C	0.464964	0.93022	0.749023
104	C	0.451252	0.902752	0.762906
105	C	0.445207	0.89064	0.586901
106	C	0.431425	0.863031	0.552083
107	C	0.421769	0.843688	0.688617
108	C	0.40913	0.818369	0.60824
109	C	0.409407	0.818925	0.411723
110	C	0.39714	0.794352	0.279094
111	C	0.384699	0.769429	0.34848
112	S	0.373487	0.746969	0.168513
113	C	0.385178	0.77039	0
114	C	0.397386	0.794846	0.074847
115	S	0.424785	0.849732	0.327012
116	S	0.45647	0.913203	0.407605
117	C	0.493344	0.987069	0.607869
118	N	0.505673	0.011768	0.542684
119	S	0.53334	0.067193	0.431653
120	S	0.569583	0.139798	0.112632
121	C	0.606912	0.214572	0.33091
122	S	0.621523	0.243844	0.21669
123	H	0.594892	0.1905	0.885847
124	H	0.584367	0.169407	0.578252
125	H	0.559243	0.119078	0.603876
126	H	0.543636	0.087822	0.94096
127	H	0.518613	0.037695	0.966082
128	H	0.497298	0.994996	0.076966
129	H	0.471196	0.942706	0.873038
130	H	0.446167	0.892565	0.897953
131	H	0.42355	0.847253	0.84103
132	H	0.40042	0.800919	0.693059
133	H	0.38146	0.762939	0.495145
134	H	0.406027	0.812157	0.988333
135	H	0.49251	0.985396	0.762191
136	H	0.606671	0.214089	0.485227
137	C	0.76924	0.384995	0
138	C	0.795798	0.398208	0.010181
139	C	0.804566	0.402571	0.203961
140	C	0.833844	0.417137	0.268452
141	C	0.842174	0.421282	0.455187
142	C	0.869795	0.435024	0.468806
143	C	0.881964	0.441077	0.292445
144	C	0.909546	0.454799	0.252137
145	C	0.921702	0.460845	0.076138
146	C	0.949309	0.47458	0.090154
147	C	0.958089	0.478949	0.276987
148	C	0.984846	0.492261	0.350347
149	C	0.006434	0.503	0.231305
150	N	0.031248	0.515345	0.296584
151	C	0.03432	0.516875	0.488842
152	C	0.061079	0.530187	0.562205
153	C	0.069862	0.534557	0.749023
154	C	0.097468	0.548291	0.762906
155	C	0.109641	0.554348	0.586901
156	C	0.137388	0.568152	0.552083
157	C	0.156829	0.577825	0.688617
158	C	0.182275	0.590484	0.60824
159	C	0.181716	0.590205	0.411723
160	C	0.206412	0.602492	0.279094
161	C	0.23146	0.614954	0.34848
162	S	0.254032	0.626183	0.168513
163	C	0.230494	0.614472	0
164	C	0.205916	0.602244	0.074847
165	S	0.150754	0.574801	0.327012
166	S	0.086965	0.543066	0.407605
167	C	0.012729	0.506134	0.607869
168	N	0.987907	0.493785	0.542684
169	S	0.932204	0.466072	0.431653
170	S	0.859234	0.429768	0.112632
171	C	0.784086	0.392383	0.33091
172	S	0.754667	0.377746	0.21669
173	H	0.808279	0.404416	0.885847
174	H	0.829477	0.414966	0.578252
175	H	0.880058	0.44013	0.603876
176	H	0.911471	0.455755	0.94096
177	H	0.961849	0.480818	0.966082
178	H	0.004762	0.502167	0.076966
179	H	0.057314	0.528313	0.873038
180	H	0.107707	0.553384	0.897953
181	H	0.153246	0.576043	0.84103
182	H	0.199812	0.59921	0.693059
183	H	0.237982	0.618199	0.495145
184	H	0.188517	0.593588	0.988333
185	H	0.01441	0.506971	0.762191
186	H	0.784571	0.392625	0.485227
