data_C78H39N9O6S12_2023-05-29_00:24:13
#******************************************
#
# CIF file created by Zeo++
# Zeo++ is an open source package to
# analyze microporous materials
#
#*******************************************

_cell_length_a		46.6901   
_cell_length_b		46.9886   
_cell_length_c		7   
_cell_angle_alpha		90   
_cell_angle_beta		90   
_cell_angle_gamma		119.722   

_symmetry_space_group_name_H-M		'P1'
_symmetry_Int_Tables_number		1
_symmetry_cell_setting		Monoclinic

loop_
_symmetry_equiv_pos_as_xyz
'+x,+y,+z'

loop_
_atom_site_label
_atom_site_type_symbol
_atom_site_fract_x
_atom_site_fract_y
_atom_site_fract_z
1	C	0.366526	0.673601	0.999995
2	O	0.395627	0.6787	0.999991
3	C	0.340236	0.639525	0.999998
4	C	0.345359	0.614409	0
5	N	0.377935	0.620282	0
6	C	0.306582	0.633477	3e-06
7	O	0.282954	0.604107	5e-06
8	C	0.298481	0.659683	6e-06
9	C	0.267511	0.653359	5e-06
10	N	0.24193	0.619943	0
11	C	0.326037	0.693487	4e-06
12	O	0.319598	0.716149	7e-06
13	C	0.360232	0.701054	0.999999
14	C	0.384523	0.731892	0.999998
15	N	0.379623	0.759267	0
16	H	0.325233	0.589957	1e-06
17	H	0.260967	0.67213	8e-06
18	H	0.409108	0.736296	0.999997
19	C	0.633474	0.326399	0.999995
20	O	0.604373	0.3213	0.999991
21	C	0.659764	0.360475	0.999998
22	C	0.654641	0.385591	0
23	N	0.622065	0.379718	0
24	C	0.693418	0.366523	3e-06
25	O	0.717046	0.395893	5e-06
26	C	0.701519	0.340317	6e-06
27	C	0.732489	0.346641	5e-06
28	N	0.75807	0.380057	0
29	C	0.673963	0.306513	4e-06
30	O	0.680402	0.283851	7e-06
31	C	0.639768	0.298946	0.999999
32	C	0.615477	0.268108	0.999998
33	N	0.620377	0.240733	0
34	H	0.674767	0.410043	1e-06
35	H	0.739033	0.32787	8e-06
36	H	0.590892	0.263704	0.999997
37	C	0.39783	0.600677	0
38	C	0.414473	0.584278	0.043181
39	C	0.41716	0.58163	0.245101
40	C	0.434724	0.564323	0.345164
41	C	0.437256	0.561827	0.53996
42	C	0.454524	0.544811	0.587994
43	C	0.464524	0.534958	0.428203
44	C	0.483962	0.515804	0.432586
45	C	0.493586	0.50632	0.59515
46	N	0.509934	0.490211	0.539561
47	C	0.511073	0.489089	0.343289
48	C	0.52663	0.473759	0.241926
49	C	0.52887	0.471551	0.04628
50	C	0.546003	0.454669	0.99268
51	C	0.556383	0.44444	0.149162
52	C	0.575962	0.425148	0.136751
53	C	0.586132	0.415126	0.295716
54	S	0.606813	0.394747	0.235881
55	C	0.60217	0.399323	0
56	C	0.585399	0.415848	0.963689
57	S	0.545422	0.455242	0.357907
58	C	0.494949	0.504977	0.274114
59	S	0.453105	0.54621	0.222826
60	C	0.40234	0.596233	0.344667
61	S	0.385421	0.612905	0.195382
62	H	0.424202	0.574691	0.936265
63	H	0.427403	0.571536	0.645251
64	H	0.459191	0.540213	0.733036
65	H	0.490376	0.509483	0.745114
66	H	0.51984	0.48045	0.628605
67	H	0.51872	0.481554	0.944571
68	H	0.550221	0.450512	0.845864
69	H	0.58263	0.418577	0.444818
70	H	0.580203	0.420968	0.821101
71	H	0.491442	0.508433	0.124898
72	H	0.400376	0.598169	0.497359
73	C	0.399187	0.798476	0
74	C	0.415553	0.831275	0.043181
75	C	0.418196	0.836572	0.245101
76	C	0.435466	0.871185	0.345164
77	C	0.437957	0.876177	0.53996
78	C	0.454938	0.910208	0.587994
79	C	0.464771	0.929914	0.428203
80	C	0.483885	0.968223	0.432586
81	C	0.49335	0.98719	0.59515
82	N	0.509426	0.019409	0.539561
83	C	0.510545	0.021653	0.343289
84	C	0.525843	0.052312	0.241926
85	C	0.528047	0.056728	0.04628
86	C	0.544894	0.090492	0.99268
87	C	0.555102	0.11095	0.149162
88	C	0.574355	0.149536	0.136751
89	C	0.584356	0.169579	0.295716
90	S	0.604693	0.210337	0.235881
91	C	0.600127	0.201186	0
92	C	0.583635	0.168134	0.963689
93	S	0.544323	0.089348	0.357907
94	C	0.49469	0.989876	0.274114
95	S	0.453542	0.907411	0.222826
96	C	0.403622	0.807365	0.344667
97	S	0.386985	0.774021	0.195382
98	H	0.42512	0.850449	0.936265
99	H	0.428268	0.856758	0.645251
100	H	0.459527	0.919404	0.733036
101	H	0.490193	0.980865	0.745114
102	H	0.519167	0.038931	0.628605
103	H	0.518065	0.036723	0.944571
104	H	0.549043	0.098806	0.845864
105	H	0.580912	0.162676	0.444818
106	H	0.578526	0.157894	0.821101
107	H	0.491241	0.982965	0.124898
108	H	0.401691	0.803493	0.497359
109	C	0.202471	0.600339	0
110	C	0.169462	0.583939	0.043181
111	C	0.164132	0.581291	0.245101
112	C	0.129298	0.563984	0.345164
113	C	0.124274	0.561488	0.53996
114	C	0.090025	0.544472	0.587994
115	C	0.070194	0.534619	0.428203
116	C	0.03164	0.515465	0.432586
117	C	0.012552	0.505981	0.59515
118	N	0.980128	0.489872	0.539561
119	C	0.97787	0.48875	0.343289
120	C	0.947015	0.47342	0.241926
121	C	0.94257	0.471212	0.04628
122	C	0.908591	0.454331	0.99268
123	C	0.888003	0.444101	0.149162
124	C	0.849171	0.424809	0.136751
125	C	0.829	0.414787	0.295716
126	S	0.787982	0.394408	0.235881
127	C	0.797191	0.398984	0
128	C	0.830453	0.415509	0.963689
129	S	0.909743	0.454902	0.357907
130	C	0.009849	0.504638	0.274114
131	S	0.09284	0.545871	0.222826
132	C	0.193525	0.595894	0.344667
133	S	0.227082	0.612566	0.195382
134	H	0.150166	0.574352	0.936265
135	H	0.143816	0.571197	0.645251
136	H	0.080771	0.539875	0.733036
137	H	0.018918	0.509144	0.745114
138	H	0.960481	0.480111	0.628605
139	H	0.962703	0.481215	0.944571
140	H	0.900224	0.450174	0.845864
141	H	0.835946	0.418238	0.444818
142	H	0.840759	0.42063	0.821101
143	H	0.016805	0.508094	0.124898
144	H	0.197421	0.59783	0.497359
