data_C72H36N6O6S6_2023-05-13_05:26:49
#******************************************
#
# CIF file created by Zeo++
# Zeo++ is an open source package to
# analyze microporous materials
#
#*******************************************

_cell_length_a		37.0617   
_cell_length_b		37.3603   
_cell_length_c		7   
_cell_angle_alpha		90   
_cell_angle_beta		90   
_cell_angle_gamma		119.651   

_symmetry_space_group_name_H-M		'P1'
_symmetry_Int_Tables_number		1
_symmetry_cell_setting		Monoclinic

loop_
_symmetry_equiv_pos_as_xyz
'+x,+y,+z'

loop_
_atom_site_label
_atom_site_type_symbol
_atom_site_fract_x
_atom_site_fract_y
_atom_site_fract_z
1	C	0.375136	0.675382	0.999995
2	O	0.411788	0.681791	0.999991
3	C	0.342079	0.632555	0.999998
4	C	0.348579	0.600988	0
5	N	0.389606	0.60837	0
6	C	0.299692	0.624953	3e-06
7	O	0.26998	0.588041	5e-06
8	C	0.289439	0.65789	6e-06
9	C	0.250435	0.649942	5e-06
10	N	0.218269	0.607944	0
11	C	0.324092	0.700375	4e-06
12	O	0.315939	0.728857	7e-06
13	C	0.367158	0.709885	0.999999
14	C	0.397703	0.748643	0.999998
15	N	0.391479	0.783048	0
16	H	0.323268	0.570257	1e-06
17	H	0.242156	0.673533	8e-06
18	H	0.428666	0.754178	0.999997
19	C	0.624864	0.324618	0.999995
20	O	0.588212	0.318209	0.999991
21	C	0.657921	0.367445	0.999998
22	C	0.651421	0.399012	0
23	N	0.610394	0.39163	0
24	C	0.700308	0.375047	3e-06
25	O	0.73002	0.411959	5e-06
26	C	0.710561	0.34211	6e-06
27	C	0.749565	0.350058	5e-06
28	N	0.781731	0.392056	0
29	C	0.675908	0.299625	4e-06
30	O	0.684061	0.271143	7e-06
31	C	0.632842	0.290115	0.999999
32	C	0.602297	0.251357	0.999998
33	N	0.608521	0.216952	0
34	H	0.676732	0.429743	1e-06
35	H	0.757844	0.326467	8e-06
36	H	0.571334	0.245822	0.999997
37	C	0.414706	0.58373	0
38	C	0.453657	0.6174	0.015831
39	C	0.483636	0.605414	0.06333
40	C	0.466063	0.563179	0.080812
41	C	0.486293	0.53905	0.127772
42	C	0.485522	0.527699	0.319426
43	C	0.504491	0.505317	0.374302
44	C	0.52457	0.494218	0.238063
45	C	0.526356	0.505054	0.043116
46	C	0.546811	0.493906	0.902355
47	C	0.568317	0.471047	0.950477
48	C	0.608125	0.485937	0.020179
49	C	0.618005	0.453942	0.049384
50	C	0.585294	0.41627	0
51	S	0.543399	0.418639	0.919878
52	C	0.547603	0.505278	0.710722
53	C	0.528351	0.527379	0.655588
54	C	0.508263	0.538468	0.791818
55	C	0.506724	0.527878	0.98699
56	S	0.413522	0.538475	0.040916
57	H	0.460635	0.648911	0.995089
58	H	0.516461	0.626663	0.083454
59	H	0.469946	0.536311	0.426668
60	H	0.503663	0.496404	0.522726
61	H	0.538913	0.4765	0.286759
62	H	0.629109	0.518258	0.04903
63	H	0.647441	0.458683	0.103265
64	H	0.563286	0.496772	0.603576
65	H	0.528853	0.535967	0.506866
66	H	0.493374	0.555643	0.742626
67	C	0.416055	0.832327	0
68	C	0.381959	0.837398	0.015831
69	C	0.393789	0.878936	0.06333
70	C	0.436339	0.903503	0.080812
71	C	0.460436	0.947461	0.127772
72	C	0.471844	0.957971	0.319426
73	C	0.494195	0.998948	0.374302
74	C	0.505204	0.029818	0.238063
75	C	0.494306	0.020823	0.043116
76	C	0.505361	0.052113	0.902355
77	C	0.528172	0.096072	0.950477
78	C	0.512936	0.120638	0.020179
79	C	0.545007	0.162176	0.049384
80	C	0.58308	0.167248	0
81	S	0.580994	0.123481	0.919878
82	C	0.493931	0.041604	0.710722
83	C	0.471865	0.000627	0.655588
84	C	0.460867	0.969757	0.791818
85	C	0.471515	0.978751	0.98699
86	S	0.461524	0.876095	0.040916
87	H	0.350256	0.813006	0.995089
88	H	0.372213	0.890285	0.083454
89	H	0.463302	0.934021	0.426668
90	H	0.503154	0.00698	0.522726
91	H	0.522901	0.06159	0.286759
92	H	0.480322	0.109288	0.04903
93	H	0.540039	0.186568	0.103265
94	H	0.502367	0.065554	0.603576
95	H	0.463235	0.992595	0.506866
96	H	0.443718	0.937984	0.742626
97	C	0.168594	0.583304	0
98	C	0.163739	0.544563	0.015831
99	C	0.121929	0.515012	0.06333
100	C	0.096953	0.53268	0.080812
101	C	0.052626	0.512851	0.127772
102	C	0.041989	0.513692	0.319426
103	C	0.000669	0.495097	0.374302
104	C	0.969582	0.475326	0.238063
105	C	0.978693	0.473485	0.043116
106	C	0.947184	0.453342	0.902355
107	C	0.902866	0.432243	0.950477
108	C	0.878295	0.392786	0.020179
109	C	0.836343	0.383243	0.049384
110	C	0.830981	0.415844	0
111	S	0.874962	0.457242	0.919878
112	C	0.957821	0.452479	0.710722
113	C	0.999139	0.471355	0.655588
114	C	0.030226	0.491137	0.791818
115	C	0.021116	0.492732	0.98699
116	S	0.124309	0.584792	0.040916
117	H	0.188464	0.537445	0.995089
118	H	0.11068	0.482413	0.083454
119	H	0.066108	0.52903	0.426668
120	H	0.992538	0.495978	0.522726
121	H	0.937541	0.461271	0.286759
122	H	0.889924	0.371816	0.04903
123	H	0.811875	0.354111	0.103265
124	H	0.933703	0.437036	0.603576
125	H	0.007267	0.4708	0.506866
126	H	0.062263	0.505734	0.742626
