data_C48H24N6O6_2023-05-30_14:30:44
#******************************************
#
# CIF file created by Zeo++
# Zeo++ is an open source package to
# analyze microporous materials
#
#*******************************************

_cell_length_a		24.7011   
_cell_length_b		25   
_cell_length_c		7   
_cell_angle_alpha		90   
_cell_angle_beta		90   
_cell_angle_gamma		119.478   

_symmetry_space_group_name_H-M		'P1'
_symmetry_Int_Tables_number		1
_symmetry_cell_setting		Monoclinic

loop_
_symmetry_equiv_pos_as_xyz
'+x,+y,+z'

loop_
_atom_site_label
_atom_site_type_symbol
_atom_site_fract_x
_atom_site_fract_y
_atom_site_fract_z
1	C	0.396008	0.679669	0.999995
2	O	0.450968	0.68923	0.999991
3	C	0.346633	0.615777	0.999998
4	C	0.356551	0.568683	0
5	N	0.41807	0.579696	0
6	C	0.283076	0.604437	3e-06
7	O	0.238689	0.549368	5e-06
8	C	0.267519	0.653573	6e-06
9	C	0.209039	0.641715	5e-06
10	N	0.160998	0.579061	0
11	C	0.31929	0.716954	4e-06
12	O	0.306908	0.759446	7e-06
13	C	0.383856	0.731142	0.999999
14	C	0.429483	0.788964	0.999998
15	N	0.419965	0.840291	0
16	H	0.318736	0.522837	1e-06
17	H	0.196494	0.67691	8e-06
18	H	0.475911	0.797221	0.999997
19	C	0.603992	0.320331	0.999995
20	O	0.549032	0.31077	0.999991
21	C	0.653367	0.384223	0.999998
22	C	0.643449	0.431317	0
23	N	0.58193	0.420304	0
24	C	0.716924	0.395563	3e-06
25	O	0.761311	0.450632	5e-06
26	C	0.732481	0.346427	6e-06
27	C	0.790961	0.358285	5e-06
28	N	0.839002	0.420939	0
29	C	0.68071	0.283046	4e-06
30	O	0.693092	0.240554	7e-06
31	C	0.616144	0.268858	0.999999
32	C	0.570517	0.211036	0.999998
33	N	0.580035	0.159709	0
34	H	0.681264	0.477163	1e-06
35	H	0.803506	0.32309	8e-06
36	H	0.524089	0.202779	0.999997
37	C	0.455859	0.542937	0
38	C	0.448961	0.549648	0.195225
39	C	0.473311	0.525961	0.327439
40	C	0.504552	0.495572	0.264558
41	C	0.512505	0.487836	0.067894
42	C	0.544141	0.457063	0
43	C	0.551039	0.450352	0.804775
44	C	0.526689	0.474039	0.672561
45	C	0.495448	0.504428	0.735442
46	C	0.487495	0.512164	0.932106
47	H	0.42465	0.573296	0.245223
48	H	0.468124	0.531007	0.479538
49	H	0.522857	0.477766	0.373655
50	H	0.575349	0.426703	0.754776
51	H	0.531877	0.468993	0.520462
52	H	0.477142	0.522233	0.626345
53	C	0.45658	0.913808	0
54	C	0.449895	0.900387	0.195225
55	C	0.473489	0.947761	0.327439
56	C	0.50376	0.008539	0.264558
57	C	0.511466	0.024012	0.067894
58	C	0.542119	0.085558	0
59	C	0.548803	0.098979	0.804775
60	C	0.525209	0.051606	0.672561
61	C	0.494939	0.990827	0.735442
62	C	0.487233	0.975355	0.932106
63	H	0.42634	0.853092	0.245223
64	H	0.468463	0.937669	0.479538
65	H	0.521497	0.044151	0.373655
66	H	0.572359	0.146275	0.754776
67	H	0.530235	0.061698	0.520462
68	H	0.477203	0.955215	0.626345
69	C	0.086594	0.542302	0
70	C	0.100177	0.549012	0.195225
71	C	0.052232	0.525326	0.327439
72	C	0.990721	0.494937	0.264558
73	C	0.975062	0.4872	0.067894
74	C	0.912774	0.456427	0
75	C	0.899191	0.449717	0.804775
76	C	0.947136	0.473404	0.672561
77	C	0.008647	0.503793	0.735442
78	C	0.024306	0.511529	0.932106
79	H	0.148043	0.572661	0.245223
80	H	0.062446	0.530372	0.479538
81	H	0.95468	0.477131	0.373655
82	H	0.851325	0.42607	0.754776
83	H	0.936921	0.468357	0.520462
84	H	0.044688	0.521599	0.626345
