data_C102H48N12O6S12_2023-05-15_18:28:48
#******************************************
#
# CIF file created by Zeo++
# Zeo++ is an open source package to
# analyze microporous materials
#
#*******************************************

_cell_length_a		55.0669   
_cell_length_b		55.3653   
_cell_length_c		7   
_cell_angle_alpha		90   
_cell_angle_beta		90   
_cell_angle_gamma		119.765   

_symmetry_space_group_name_H-M		'P1'
_symmetry_Int_Tables_number		1
_symmetry_cell_setting		Monoclinic

loop_
_symmetry_equiv_pos_as_xyz
'+x,+y,+z'

loop_
_atom_site_label
_atom_site_type_symbol
_atom_site_fract_x
_atom_site_fract_y
_atom_site_fract_z
1	C	0.361482	0.672554	0.999995
2	O	0.38616	0.676884	0.999991
3	C	0.339167	0.643622	0.999998
4	C	0.343492	0.622297	0
5	N	0.371117	0.627284	0
6	C	0.310627	0.638487	3e-06
7	O	0.290573	0.61355	5e-06
8	C	0.303778	0.660737	6e-06
9	C	0.277515	0.655368	5e-06
10	N	0.255801	0.626996	0
11	C	0.327166	0.689438	4e-06
12	O	0.321723	0.70868	7e-06
13	C	0.356165	0.695863	0.999999
14	C	0.376783	0.722047	0.999998
15	N	0.372648	0.745289	0
16	H	0.32641	0.601536	1e-06
17	H	0.271979	0.671305	8e-06
18	H	0.397631	0.725785	0.999997
19	C	0.638518	0.327446	0.999995
20	O	0.61384	0.323116	0.999991
21	C	0.660833	0.356378	0.999998
22	C	0.656508	0.377703	0
23	N	0.628883	0.372716	0
24	C	0.689373	0.361513	3e-06
25	O	0.709427	0.38645	5e-06
26	C	0.696222	0.339263	6e-06
27	C	0.722485	0.344632	5e-06
28	N	0.744199	0.373004	0
29	C	0.672834	0.310562	4e-06
30	O	0.678277	0.29132	7e-06
31	C	0.643835	0.304137	0.999999
32	C	0.623217	0.277953	0.999998
33	N	0.627352	0.254711	0
34	H	0.67359	0.398464	1e-06
35	H	0.728021	0.328695	8e-06
36	H	0.602369	0.274215	0.999997
37	C	0.612029	0.389362	0
38	C	0.620257	0.381238	0.160671
39	S	0.610164	0.391209	0.362683
40	C	0.594619	0.406559	0.234685
41	C	0.581019	0.419992	0.32931
42	C	0.57823	0.422752	0.523
43	C	0.563517	0.437282	0.565128
44	C	0.555092	0.445597	0.403592
45	C	0.539535	0.46096	0.389364
46	C	0.532242	0.468164	0.217398
47	N	0.517999	0.482229	0.199753
48	C	0.509812	0.490313	0.358099
49	C	0.516242	0.483962	0.540026
50	C	0.531045	0.469343	0.552608
51	C	0.508047	0.492054	0.706039
52	C	0.493459	0.506461	0.693299
53	C	0.486902	0.512937	0.514404
54	C	0.472102	0.527553	0.501132
55	C	0.465227	0.534343	0.324468
56	C	0.449664	0.549713	0.311539
57	C	0.439782	0.559474	0.457041
58	C	0.425594	0.573486	0.389492
59	C	0.424655	0.574412	0.192482
60	C	0.411824	0.587083	0.079466
61	C	0.398121	0.600614	0.148476
62	C	0.387971	0.610638	0
63	C	0.393804	0.60488	0.821129
64	S	0.411776	0.587133	0.832939
65	S	0.441201	0.55807	0.094387
66	C	0.474087	0.525595	0.166585
67	N	0.488381	0.511479	0.173887
68	C	0.495	0.504941	0.345163
69	S	0.56554	0.435273	0.202911
70	C	0.597396	0.403814	0.040131
71	H	0.631624	0.370012	0.170389
72	H	0.586301	0.414784	0.632454
73	H	0.559504	0.441249	0.709867
74	H	0.537581	0.462893	0.080112
75	H	0.535856	0.464591	0.693496
76	H	0.512954	0.487207	0.846511
77	H	0.487263	0.512578	0.824079
78	H	0.465998	0.53358	0.632485
79	H	0.442398	0.556891	0.607556
80	H	0.416556	0.582413	0.483861
81	H	0.395502	0.603198	0.298993
82	H	0.388514	0.610106	0.684356
83	H	0.470088	0.529546	0.021148
84	H	0.58928	0.411827	0.931328
85	C	0.610154	0.221132	0
86	C	0.618264	0.237383	0.160671
87	S	0.608311	0.217444	0.362683
88	C	0.592987	0.186742	0.234685
89	C	0.579578	0.159878	0.32931
90	C	0.576823	0.154363	0.523
91	C	0.562318	0.125303	0.565128
92	C	0.554017	0.108668	0.403592
93	C	0.538681	0.077941	0.389364
94	C	0.53149	0.063534	0.217398
95	N	0.517449	0.035403	0.199753
96	C	0.509379	0.019234	0.358099
97	C	0.515719	0.031934	0.540026
98	C	0.530312	0.061173	0.552608
99	C	0.507641	0.015749	0.706039
100	C	0.493259	0.986935	0.693299
101	C	0.486795	0.973984	0.514404
102	C	0.472205	0.944752	0.501132
103	C	0.465426	0.931172	0.324468
104	C	0.450083	0.900432	0.311539
105	C	0.440339	0.880911	0.457041
106	C	0.426352	0.852888	0.389492
107	C	0.425427	0.851035	0.192482
108	C	0.412778	0.825691	0.079466
109	C	0.399271	0.798628	0.148476
110	C	0.389264	0.77858	0
111	C	0.395013	0.790099	0.821129
112	S	0.412728	0.825594	0.832939
113	S	0.441741	0.883718	0.094387
114	C	0.474159	0.94867	0.166585
115	N	0.48825	0.976902	0.173887
116	C	0.494777	0.989977	0.345163
117	S	0.564324	0.12931	0.202911
118	C	0.595728	0.19223	0.040131
119	H	0.62947	0.259834	0.170389
120	H	0.584776	0.170302	0.632454
121	H	0.558357	0.117373	0.709867
122	H	0.536752	0.074078	0.080112
123	H	0.535057	0.070677	0.693496
124	H	0.51248	0.025443	0.846511
125	H	0.487153	0.974699	0.824079
126	H	0.466188	0.932697	0.632485
127	H	0.442917	0.886079	0.607556
128	H	0.41744	0.835035	0.483861
129	H	0.396691	0.793458	0.298993
130	H	0.389796	0.779648	0.684356
131	H	0.470215	0.94077	0.021148
132	H	0.587728	0.176201	0.931328
133	C	0.777383	0.389074	0
134	C	0.761045	0.380948	0.160671
135	S	0.781091	0.390916	0.362683
136	C	0.811959	0.406268	0.234685
137	C	0.838969	0.419699	0.32931
138	C	0.844513	0.422454	0.523
139	C	0.873731	0.436984	0.565128
140	C	0.890456	0.445304	0.403592
141	C	0.92135	0.460668	0.389364
142	C	0.935834	0.467871	0.217398
143	N	0.964117	0.481936	0.199753
144	C	0.980374	0.490022	0.358099
145	C	0.967605	0.483672	0.540026
146	C	0.938208	0.469053	0.552608
147	C	0.983878	0.491765	0.706039
148	C	0.012848	0.506173	0.693299
149	C	0.025868	0.512648	0.514404
150	C	0.055259	0.527264	0.501132
151	C	0.068913	0.534053	0.324468
152	C	0.099819	0.549423	0.311539
153	C	0.119445	0.559183	0.457041
154	C	0.14762	0.573195	0.389492
155	C	0.149483	0.574122	0.192482
156	C	0.174964	0.586794	0.079466
157	C	0.202173	0.600327	0.148476
158	C	0.22233	0.61035	0
159	C	0.210749	0.60459	0.821129
160	S	0.175062	0.586841	0.832939
161	S	0.116624	0.557781	0.094387
162	C	0.05132	0.525304	0.166585
163	N	0.022935	0.511187	0.173887
164	C	0.009789	0.50465	0.345163
165	S	0.869702	0.434986	0.202911
166	C	0.806442	0.403525	0.040131
167	H	0.738472	0.369722	0.170389
168	H	0.828488	0.414482	0.632454
169	H	0.881704	0.440947	0.709867
170	H	0.925233	0.462598	0.080112
171	H	0.928653	0.464301	0.693496
172	H	0.974132	0.486919	0.846511
173	H	0.02515	0.512291	0.824079
174	H	0.067379	0.533292	0.632485
175	H	0.11425	0.556599	0.607556
176	H	0.16557	0.582121	0.483861
177	H	0.207372	0.602913	0.298993
178	H	0.221256	0.609815	0.684356
179	H	0.059263	0.529253	0.021148
180	H	0.822557	0.41154	0.931328
