data_C66H36N12O6S6_2023-05-29_14:51:02
#******************************************
#
# CIF file created by Zeo++
# Zeo++ is an open source package to
# analyze microporous materials
#
#*******************************************

_cell_length_a		39.6576   
_cell_length_b		39.9562   
_cell_length_c		7   
_cell_angle_alpha		90   
_cell_angle_beta		90   
_cell_angle_gamma		119.674   

_symmetry_space_group_name_H-M		'P1'
_symmetry_Int_Tables_number		1
_symmetry_cell_setting		Monoclinic

loop_
_symmetry_equiv_pos_as_xyz
'+x,+y,+z'

loop_
_atom_site_label
_atom_site_type_symbol
_atom_site_fract_x
_atom_site_fract_y
_atom_site_fract_z
1	C	0.372404	0.674818	0.999995
2	O	0.406659	0.680811	0.999991
3	C	0.341492	0.634764	0.999998
4	C	0.347553	0.605241	0
5	N	0.385898	0.612145	0
6	C	0.301876	0.627655	3e-06
7	O	0.274093	0.593132	5e-06
8	C	0.292309	0.658458	6e-06
9	C	0.255854	0.651025	5e-06
10	N	0.225776	0.611747	0
11	C	0.324711	0.698192	4e-06
12	O	0.317105	0.72483	7e-06
13	C	0.364962	0.707086	0.999999
14	C	0.393525	0.743335	0.999998
15	N	0.387723	0.775512	0
16	H	0.323886	0.5765	1e-06
17	H	0.248128	0.673088	8e-06
18	H	0.422463	0.748511	0.999997
19	C	0.627596	0.325182	0.999995
20	O	0.593341	0.319189	0.999991
21	C	0.658508	0.365236	0.999998
22	C	0.652447	0.394759	0
23	N	0.614102	0.387855	0
24	C	0.698124	0.372345	3e-06
25	O	0.725907	0.406868	5e-06
26	C	0.707691	0.341542	6e-06
27	C	0.744146	0.348975	5e-06
28	N	0.774224	0.388253	0
29	C	0.675289	0.301808	4e-06
30	O	0.682895	0.27517	7e-06
31	C	0.635038	0.292914	0.999999
32	C	0.606475	0.256665	0.999998
33	N	0.612277	0.224488	0
34	H	0.676114	0.4235	1e-06
35	H	0.751872	0.326912	8e-06
36	H	0.577537	0.251489	0.999997
37	C	0.409344	0.589101	0
38	C	0.429368	0.56942	0.019524
39	C	0.433371	0.565487	0.218492
40	C	0.45394	0.545271	0.317088
41	C	0.456887	0.542376	0.511439
42	C	0.477229	0.522383	0.559185
43	C	0.489361	0.510458	0.40042
44	C	0.51064	0.489543	0.40042
45	C	0.522772	0.477619	0.559185
46	C	0.543115	0.457625	0.511439
47	C	0.546061	0.45473	0.317088
48	C	0.566629	0.434514	0.218493
49	C	0.584388	0.417059	0.312794
50	N	0.598943	0.402754	0.177421
51	C	0.590656	0.410899	0
52	C	0.570632	0.43058	0.019524
53	S	0.524484	0.475937	0.194987
54	S	0.475517	0.524063	0.194987
55	C	0.415612	0.582942	0.312794
56	N	0.401057	0.597246	0.177421
57	H	0.439916	0.559052	0.904114
58	H	0.4452	0.553863	0.615944
59	H	0.482533	0.517172	0.704949
60	H	0.517469	0.48283	0.704949
61	H	0.554802	0.446138	0.615944
62	H	0.588036	0.413473	0.463089
63	H	0.613514	0.388432	0.203547
64	H	0.560084	0.440948	0.904114
65	H	0.411965	0.586528	0.463088
66	H	0.386486	0.611568	0.203547
67	C	0.410711	0.821599	0
68	C	0.430345	0.860962	0.019524
69	C	0.434268	0.868828	0.218492
70	C	0.454435	0.909261	0.317088
71	C	0.457322	0.915051	0.511439
72	C	0.477267	0.955038	0.559185
73	C	0.489163	0.978887	0.40042
74	C	0.510027	0.020715	0.40042
75	C	0.521923	0.044564	0.559185
76	C	0.541868	0.084551	0.511439
77	C	0.544756	0.090342	0.317088
78	C	0.564923	0.130774	0.218493
79	C	0.582335	0.165683	0.312794
80	N	0.596606	0.194293	0.177421
81	C	0.58848	0.178003	0
82	C	0.568847	0.138641	0.019524
83	S	0.5236	0.047928	0.194987
84	S	0.475591	0.951675	0.194987
85	C	0.416855	0.833919	0.312794
86	N	0.402585	0.80531	0.177421
87	H	0.440687	0.881696	0.904114
88	H	0.445863	0.892078	0.615944
89	H	0.482466	0.965462	0.704949
90	H	0.516724	0.034141	0.704949
91	H	0.553327	0.107525	0.615944
92	H	0.585912	0.172854	0.463089
93	H	0.610892	0.222935	0.203547
94	H	0.558504	0.117906	0.904114
95	H	0.413278	0.826749	0.463088
96	H	0.388299	0.776667	0.203547
97	C	0.179342	0.588703	0
98	C	0.139684	0.569022	0.019524
99	C	0.131758	0.565088	0.218492
100	C	0.091022	0.544871	0.317088
101	C	0.085188	0.541976	0.511439
102	C	0.044901	0.521982	0.559185
103	C	0.020873	0.510058	0.40042
104	C	0.97873	0.489144	0.40042
105	C	0.954702	0.47722	0.559185
106	C	0.914415	0.457227	0.511439
107	C	0.908581	0.454331	0.317088
108	C	0.867845	0.434115	0.218493
109	C	0.832673	0.416661	0.312794
110	N	0.803849	0.402356	0.177421
111	C	0.820261	0.410501	0
112	C	0.859919	0.430182	0.019524
113	S	0.951313	0.475538	0.194987
114	S	0.048289	0.523665	0.194987
115	C	0.166929	0.582542	0.312794
116	N	0.195754	0.596847	0.177421
117	H	0.118794	0.558655	0.904114
118	H	0.108334	0.553462	0.615944
119	H	0.034399	0.51677	0.704949
120	H	0.965204	0.482432	0.704949
121	H	0.891269	0.44574	0.615944
122	H	0.825449	0.413076	0.463089
123	H	0.774991	0.388035	0.203547
124	H	0.880809	0.440549	0.904114
125	H	0.174154	0.586127	0.463088
126	H	0.224612	0.611168	0.203547
