data_C84H36N6O6S18_2023-05-12_22:25:18
#******************************************
#
# CIF file created by Zeo++
# Zeo++ is an open source package to
# analyze microporous materials
#
#*******************************************

_cell_length_a		46.5094   
_cell_length_b		46.8079   
_cell_length_c		7   
_cell_angle_alpha		90   
_cell_angle_beta		90   
_cell_angle_gamma		119.721   

_symmetry_space_group_name_H-M		'P1'
_symmetry_Int_Tables_number		1
_symmetry_cell_setting		Monoclinic

loop_
_symmetry_equiv_pos_as_xyz
'+x,+y,+z'

loop_
_atom_site_label
_atom_site_type_symbol
_atom_site_fract_x
_atom_site_fract_y
_atom_site_fract_z
1	C	0.366655	0.673628	0.999995
2	O	0.395869	0.678747	0.999991
3	C	0.340264	0.639421	0.999998
4	C	0.345407	0.614207	0
5	N	0.378109	0.620103	0
6	C	0.306479	0.633349	3e-06
7	O	0.28276	0.603866	5e-06
8	C	0.298346	0.659656	6e-06
9	C	0.267256	0.653308	5e-06
10	N	0.241576	0.619763	0
11	C	0.326008	0.69359	4e-06
12	O	0.319544	0.716339	7e-06
13	C	0.360336	0.701186	0.999999
14	C	0.384721	0.732143	0.999998
15	N	0.379801	0.759623	0
16	H	0.325203	0.589662	1e-06
17	H	0.260686	0.672151	8e-06
18	H	0.4094	0.736564	0.999997
19	C	0.633345	0.326372	0.999995
20	O	0.604131	0.321253	0.999991
21	C	0.659736	0.360579	0.999998
22	C	0.654593	0.385793	0
23	N	0.621891	0.379897	0
24	C	0.693521	0.366651	3e-06
25	O	0.71724	0.396134	5e-06
26	C	0.701654	0.340344	6e-06
27	C	0.732744	0.346692	5e-06
28	N	0.758424	0.380237	0
29	C	0.673992	0.30641	4e-06
30	O	0.680456	0.283661	7e-06
31	C	0.639664	0.298814	0.999999
32	C	0.615279	0.267857	0.999998
33	N	0.620199	0.240377	0
34	H	0.674797	0.410338	1e-06
35	H	0.739314	0.327849	8e-06
36	H	0.5906	0.263436	0.999997
37	C	0.601918	0.399577	0
38	C	0.586859	0.414415	0.093498
39	C	0.589063	0.412243	0.296157
40	C	0.574509	0.426583	0.447898
41	C	0.557767	0.44308	0.40178
42	C	0.547268	0.453425	0.566984
43	C	0.527521	0.472883	0.563494
44	C	0.517713	0.482547	0.72515
45	C	0.500403	0.499603	0.67634
46	C	0.49767	0.502297	0.483862
47	C	0.480359	0.519353	0.435084
48	C	0.470549	0.529019	0.596714
49	C	0.450802	0.548476	0.590662
50	C	0.441	0.558135	0.752458
51	S	0.420159	0.57867	0.699481
52	C	0.423992	0.574894	0.459523
53	C	0.409955	0.588725	0.301492
54	C	0.393114	0.605318	0.343729
55	S	0.380973	0.617281	0.141921
56	C	0.398082	0.600423	0
57	C	0.412823	0.585899	0.09993
58	C	0.440882	0.558251	0.420862
59	S	0.481783	0.51795	0.804897
60	S	0.516288	0.483952	0.355272
61	C	0.556504	0.444325	0.733044
62	S	0.577518	0.423619	0.689386
63	C	0.605751	0.3958	0.34565
64	S	0.618548	0.383191	0.149216
65	H	0.574948	0.426151	0.020579
66	H	0.553165	0.447615	0.256458
67	H	0.522297	0.47803	0.870512
68	H	0.475764	0.523881	0.289795
69	H	0.444879	0.554313	0.900392
70	H	0.387155	0.611191	0.482325
71	H	0.424959	0.573941	0.032114
72	H	0.44594	0.553268	0.277646
73	H	0.552165	0.4486	0.879186
74	H	0.611248	0.390383	0.486717
75	C	0.599871	0.200677	0
76	C	0.585064	0.171001	0.093498
77	C	0.58723	0.175343	0.296157
78	C	0.57292	0.146664	0.447898
79	C	0.556458	0.11367	0.40178
80	C	0.546134	0.09298	0.566984
81	C	0.526717	0.054065	0.563494
82	C	0.517073	0.034737	0.72515
83	C	0.500051	0.000624	0.67634
84	C	0.497364	0.995237	0.483862
85	C	0.480343	0.961125	0.435084
86	C	0.470696	0.941792	0.596714
87	C	0.451279	0.902878	0.590662
88	C	0.441641	0.88356	0.752458
89	S	0.421148	0.84249	0.699481
90	C	0.424917	0.850043	0.459523
91	C	0.411114	0.82238	0.301492
92	C	0.394555	0.789193	0.343729
93	S	0.382617	0.765267	0.141921
94	C	0.39944	0.798984	0
95	C	0.413935	0.828033	0.09993
96	C	0.441525	0.883329	0.420862
97	S	0.481742	0.96393	0.804897
98	S	0.515671	0.031928	0.355272
99	C	0.555216	0.111181	0.733044
100	S	0.575878	0.152592	0.689386
101	C	0.60364	0.20823	0.34565
102	S	0.616223	0.233449	0.149216
103	H	0.573352	0.147529	0.020579
104	H	0.551932	0.104601	0.256458
105	H	0.52158	0.043769	0.870512
106	H	0.475824	0.952069	0.289795
107	H	0.445455	0.891204	0.900392
108	H	0.388695	0.777449	0.482325
109	H	0.425868	0.851949	0.032114
110	H	0.446498	0.893295	0.277646
111	H	0.550949	0.102631	0.879186
112	H	0.609045	0.219064	0.486717
113	C	0.797697	0.399237	0
114	C	0.827563	0.414075	0.093498
115	C	0.823193	0.411903	0.296157
116	C	0.852056	0.426243	0.447898
117	C	0.885261	0.44274	0.40178
118	C	0.906084	0.453085	0.566984
119	C	0.945248	0.472542	0.563494
120	C	0.9647	0.482206	0.72515
121	C	0.999031	0.499263	0.67634
122	C	0.004453	0.501956	0.483862
123	C	0.038784	0.519012	0.435084
124	C	0.058241	0.528679	0.596714
125	C	0.097404	0.548136	0.590662
126	C	0.116845	0.557795	0.752458
127	S	0.158179	0.57833	0.699481
128	C	0.150577	0.574553	0.459523
129	C	0.178417	0.588385	0.301492
130	C	0.211816	0.604978	0.343729
131	S	0.235896	0.616941	0.141921
132	C	0.201964	0.600083	0
133	C	0.172728	0.585558	0.09993
134	C	0.117078	0.557911	0.420862
135	S	0.03596	0.51761	0.804897
136	S	0.967527	0.483611	0.355272
137	C	0.887766	0.443984	0.733044
138	S	0.84609	0.423279	0.689386
139	C	0.790095	0.39546	0.34565
140	S	0.764715	0.382851	0.149216
141	H	0.851186	0.42581	0.020579
142	H	0.894388	0.447274	0.256458
143	H	0.95561	0.47769	0.870512
144	H	0.047897	0.52354	0.289795
145	H	0.109152	0.553973	0.900392
146	H	0.223636	0.610851	0.482325
147	H	0.148659	0.5736	0.032114
148	H	0.107048	0.552927	0.277646
149	H	0.896371	0.448259	0.879186
150	H	0.779193	0.390043	0.486717
