data_C66H30N18O6S6_2023-05-10_22:02:09
#******************************************
#
# CIF file created by Zeo++
# Zeo++ is an open source package to
# analyze microporous materials
#
#*******************************************

_cell_length_a		42.0391   
_cell_length_b		42.3376   
_cell_length_c		7   
_cell_angle_alpha		90   
_cell_angle_beta		90   
_cell_angle_gamma		119.692   

_symmetry_space_group_name_H-M		'P1'
_symmetry_Int_Tables_number		1
_symmetry_cell_setting		Monoclinic

loop_
_symmetry_equiv_pos_as_xyz
'+x,+y,+z'

loop_
_atom_site_label
_atom_site_type_symbol
_atom_site_fract_x
_atom_site_fract_y
_atom_site_fract_z
1	C	0.370193	0.67436	0.999995
2	O	0.402511	0.680018	0.999991
3	C	0.341019	0.636553	0.999998
4	C	0.346726	0.608685	0
5	N	0.382901	0.615202	0
6	C	0.303645	0.629842	3e-06
7	O	0.277423	0.597256	5e-06
8	C	0.29463	0.658918	6e-06
9	C	0.260238	0.651902	5e-06
10	N	0.23185	0.614826	0
11	C	0.325211	0.696424	4e-06
12	O	0.318044	0.721568	7e-06
13	C	0.363185	0.70482	0.999999
14	C	0.390142	0.739035	0.999998
15	N	0.38468	0.769408	0
16	H	0.324389	0.581556	1e-06
17	H	0.252957	0.672728	8e-06
18	H	0.417443	0.743921	0.999997
19	C	0.629807	0.32564	0.999995
20	O	0.597489	0.319982	0.999991
21	C	0.658981	0.363447	0.999998
22	C	0.653274	0.391315	0
23	N	0.617099	0.384798	0
24	C	0.696355	0.370158	3e-06
25	O	0.722577	0.402744	5e-06
26	C	0.70537	0.341082	6e-06
27	C	0.739762	0.348098	5e-06
28	N	0.76815	0.385174	0
29	C	0.674789	0.303576	4e-06
30	O	0.681956	0.278432	7e-06
31	C	0.636815	0.29518	0.999999
32	C	0.609858	0.260965	0.999998
33	N	0.61532	0.230592	0
34	H	0.675611	0.418444	1e-06
35	H	0.747043	0.327272	8e-06
36	H	0.582557	0.256079	0.999997
37	C	0.594989	0.40655	0
38	C	0.596258	0.405301	0.195615
39	C	0.577887	0.423374	0.267071
40	C	0.565991	0.435078	0.112206
41	C	0.546254	0.454495	0.0984
42	N	0.53801	0.462606	0.930827
43	C	0.519035	0.481273	0.955615
44	C	0.505741	0.494353	0.810183
45	C	0.486963	0.512826	0.855126
46	C	0.480965	0.518727	0.044386
47	C	0.494259	0.505647	0.189818
48	C	0.513037	0.487174	0.144874
49	S	0.531963	0.468554	0.293327
50	N	0.461991	0.537394	0.069173
51	C	0.453746	0.545505	0.901601
52	C	0.434009	0.564923	0.887795
53	C	0.422113	0.576626	0.732929
54	C	0.403743	0.594699	0.804385
55	C	0.405011	0.59345	0
56	N	0.423224	0.575533	0.049774
57	S	0.468037	0.531446	0.706673
58	N	0.576776	0.424467	0.950227
59	H	0.608873	0.39289	0.278669
60	H	0.573915	0.427282	0.416212
61	H	0.510264	0.489903	0.662189
62	H	0.489736	0.510097	0.337812
63	H	0.426086	0.572718	0.583789
64	H	0.391127	0.60711	0.721331
65	H	0.428282	0.570555	0.184513
66	H	0.571717	0.429444	0.815488
67	C	0.592855	0.186713	0
68	C	0.594101	0.18921	0.195615
69	C	0.576069	0.153064	0.267071
70	C	0.564392	0.129657	0.112206
71	C	0.545019	0.090822	0.0984
72	N	0.536927	0.0746	0.930827
73	C	0.518303	0.037266	0.955615
74	C	0.505253	0.011107	0.810183
75	C	0.486822	0.97416	0.855126
76	C	0.480935	0.962359	0.044386
77	C	0.493984	0.988518	0.189818
78	C	0.512416	0.025465	0.144874
79	S	0.530992	0.062704	0.293327
80	N	0.462311	0.925025	0.069173
81	C	0.454218	0.908803	0.901601
82	C	0.434845	0.869968	0.887795
83	C	0.423168	0.846561	0.732929
84	C	0.405136	0.810415	0.804385
85	C	0.406382	0.812911	0
86	N	0.424259	0.848747	0.049774
87	S	0.468245	0.936921	0.706673
88	N	0.574978	0.150878	0.950227
89	H	0.606483	0.214032	0.278669
90	H	0.57217	0.145247	0.416212
91	H	0.509693	0.020008	0.662189
92	H	0.489544	0.979617	0.337812
93	H	0.427067	0.854377	0.583789
94	H	0.392754	0.785593	0.721331
95	H	0.429225	0.858701	0.184513
96	H	0.570013	0.140924	0.815488
97	C	0.811587	0.406174	0
98	C	0.809073	0.404925	0.195615
99	C	0.845475	0.422998	0.267071
100	C	0.869047	0.434702	0.112206
101	C	0.908158	0.454119	0.0984
102	N	0.924495	0.46223	0.930827
103	C	0.962094	0.480897	0.955615
104	C	0.988438	0.493976	0.810183
105	C	0.025647	0.51245	0.855126
106	C	0.037531	0.518351	0.044386
107	C	0.011187	0.505272	0.189818
108	C	0.973978	0.486798	0.144874
109	S	0.936476	0.468179	0.293327
110	N	0.07513	0.537018	0.069173
111	C	0.091467	0.545129	0.901601
112	C	0.130578	0.564546	0.887795
113	C	0.15415	0.576249	0.732929
114	C	0.190552	0.594322	0.804385
115	C	0.188038	0.593075	0
116	N	0.151948	0.575157	0.049774
117	S	0.063149	0.531069	0.706673
118	N	0.847677	0.424092	0.950227
119	H	0.784075	0.392514	0.278669
120	H	0.853347	0.426907	0.416212
121	H	0.979474	0.489526	0.662189
122	H	0.020151	0.509722	0.337812
123	H	0.146278	0.572341	0.583789
124	H	0.21555	0.606733	0.721331
125	H	0.141924	0.57018	0.184513
126	H	0.857701	0.429068	0.815488
