data_C84H36N6O6S18_2023-05-15_11:10:57
#******************************************
#
# CIF file created by Zeo++
# Zeo++ is an open source package to
# analyze microporous materials
#
#*******************************************

_cell_length_a		51.3806   
_cell_length_b		51.679   
_cell_length_c		7   
_cell_angle_alpha		90   
_cell_angle_beta		90   
_cell_angle_gamma		119.748   

_symmetry_space_group_name_H-M		'P1'
_symmetry_Int_Tables_number		1
_symmetry_cell_setting		Monoclinic

loop_
_symmetry_equiv_pos_as_xyz
'+x,+y,+z'

loop_
_atom_site_label
_atom_site_type_symbol
_atom_site_fract_x
_atom_site_fract_y
_atom_site_fract_z
1	C	0.363499	0.672973	0.999995
2	O	0.389946	0.677611	0.999991
3	C	0.339594	0.641983	0.999998
4	C	0.344237	0.61914	0
5	N	0.373842	0.624481	0
6	C	0.309009	0.636482	3e-06
7	O	0.287524	0.609771	5e-06
8	C	0.30166	0.660315	6e-06
9	C	0.273514	0.654564	5e-06
10	N	0.250253	0.624173	0
11	C	0.326715	0.691059	4e-06
12	O	0.320875	0.711669	7e-06
13	C	0.357793	0.697941	0.999999
14	C	0.37988	0.725987	0.999998
15	N	0.37544	0.750883	0
16	H	0.325937	0.596902	1e-06
17	H	0.267576	0.671635	8e-06
18	H	0.402222	0.729992	0.999997
19	C	0.636501	0.327027	0.999995
20	O	0.610054	0.322389	0.999991
21	C	0.660406	0.358017	0.999998
22	C	0.655763	0.38086	0
23	N	0.626158	0.375519	0
24	C	0.690991	0.363518	3e-06
25	O	0.712476	0.390229	5e-06
26	C	0.69834	0.339685	6e-06
27	C	0.726486	0.345436	5e-06
28	N	0.749747	0.375827	0
29	C	0.673285	0.308941	4e-06
30	O	0.679125	0.288331	7e-06
31	C	0.642207	0.302059	0.999999
32	C	0.62012	0.274013	0.999998
33	N	0.62456	0.249117	0
34	H	0.674063	0.403098	1e-06
35	H	0.732424	0.328365	8e-06
36	H	0.597778	0.270008	0.999997
37	C	0.391912	0.606652	0
38	C	0.407284	0.591484	0.024814
39	C	0.411232	0.587589	0.222896
40	C	0.427865	0.571176	0.303271
41	C	0.431614	0.567477	0.494004
42	C	0.447588	0.551716	0.522532
43	C	0.455708	0.543702	0.353303
44	C	0.472073	0.527555	0.333612
45	C	0.482371	0.517393	0.482489
46	C	0.497585	0.502381	0.41525
47	C	0.498618	0.501362	0.221438
48	C	0.513831	0.486351	0.154166
49	C	0.524119	0.4762	0.303087
50	C	0.540505	0.460032	0.289046
51	C	0.551005	0.449672	0.435757
52	C	0.566257	0.434623	0.369305
53	C	0.567084	0.433807	0.173036
54	C	0.582331	0.418762	0.056631
55	C	0.582883	0.418218	0.859463
56	S	0.601068	0.400275	0.775059
57	C	0.608088	0.393348	0
58	C	0.597121	0.40417	0.138546
59	S	0.549587	0.451071	0.07166
60	S	0.515285	0.484917	0.522985
61	S	0.480919	0.518825	0.113867
62	S	0.443526	0.555722	0.161854
63	C	0.39858	0.600073	0.338189
64	S	0.382161	0.616273	0.208049
65	H	0.415275	0.583598	0.907725
66	H	0.423505	0.575479	0.609702
67	H	0.452739	0.546633	0.662839
68	H	0.479416	0.520309	0.632499
69	H	0.516779	0.483443	0.00403
70	H	0.548055	0.452583	0.58597
71	H	0.575958	0.425052	0.463393
72	H	0.573612	0.427365	0.758944
73	H	0.599574	0.40175	0.289975
74	H	0.397946	0.600699	0.492327
75	C	0.393236	0.786543	0
76	C	0.408376	0.816878	0.024814
77	C	0.412264	0.824669	0.222896
78	C	0.428645	0.857493	0.303271
79	C	0.432337	0.864891	0.494004
80	C	0.448069	0.896414	0.522532
81	C	0.456068	0.912441	0.353303
82	C	0.472185	0.944736	0.333612
83	C	0.482328	0.965059	0.482489
84	C	0.497312	0.995083	0.41525
85	C	0.498329	0.997121	0.221438
86	C	0.513312	0.027142	0.154166
87	C	0.523444	0.047445	0.303087
88	C	0.539582	0.079781	0.289046
89	C	0.549922	0.100502	0.435757
90	C	0.564943	0.1306	0.369305
91	C	0.565758	0.132232	0.173036
92	C	0.580774	0.162321	0.056631
93	C	0.581317	0.16341	0.859463
94	S	0.599227	0.199296	0.775059
95	C	0.60614	0.213149	0
96	C	0.595339	0.191506	0.138546
97	S	0.548526	0.097703	0.07166
98	S	0.514743	0.030011	0.522985
99	S	0.480898	0.962194	0.113867
100	S	0.444071	0.888401	0.161854
101	C	0.399803	0.799702	0.338189
102	S	0.383633	0.767301	0.208049
103	H	0.416247	0.83265	0.907725
104	H	0.424351	0.848889	0.609702
105	H	0.453143	0.90658	0.662839
106	H	0.479417	0.959226	0.632499
107	H	0.516215	0.032959	0.00403
108	H	0.547016	0.094679	0.58597
109	H	0.574496	0.149743	0.463393
110	H	0.572187	0.145114	0.758944
111	H	0.597754	0.196346	0.289975
112	H	0.399178	0.798449	0.492327
113	C	0.214386	0.606343	0
114	C	0.183875	0.591176	0.024814
115	C	0.176039	0.58728	0.222896
116	C	0.143025	0.570868	0.303271
117	C	0.135584	0.567169	0.494004
118	C	0.103878	0.551408	0.522532
119	C	0.087758	0.543395	0.353303
120	C	0.055276	0.527248	0.333612
121	C	0.034836	0.517086	0.482489
122	C	0.004637	0.502074	0.41525
123	C	0.002587	0.501055	0.221438
124	C	0.972392	0.486045	0.154166
125	C	0.951971	0.475893	0.303087
126	C	0.919448	0.459725	0.289046
127	C	0.898607	0.449364	0.435757
128	C	0.868334	0.434315	0.369305
129	C	0.866693	0.433499	0.173036
130	C	0.836429	0.418455	0.056631
131	C	0.835334	0.41791	0.859463
132	S	0.79924	0.399967	0.775059
133	C	0.785306	0.39304	0
134	C	0.807075	0.403862	0.138546
135	S	0.901422	0.450764	0.07166
136	S	0.969506	0.48461	0.522985
137	S	0.037717	0.518519	0.113867
138	S	0.111937	0.555415	0.161854
139	C	0.201151	0.599764	0.338189
140	S	0.23374	0.615964	0.208049
141	H	0.168012	0.583291	0.907725
142	H	0.151679	0.57517	0.609702
143	H	0.093653	0.546325	0.662839
144	H	0.040702	0.520002	0.632499
145	H	0.966541	0.483136	0.00403
146	H	0.904464	0.452276	0.58597
147	H	0.84908	0.424744	0.463393
148	H	0.853736	0.427059	0.758944
149	H	0.802207	0.401442	0.289975
150	H	0.202411	0.60039	0.492327
