data_C60H24N6O6S12_2023-05-13_03:05:37
#******************************************
#
# CIF file created by Zeo++
# Zeo++ is an open source package to
# analyze microporous materials
#
#*******************************************

_cell_length_a		39.6931   
_cell_length_b		39.9917   
_cell_length_c		7   
_cell_angle_alpha		90   
_cell_angle_beta		90   
_cell_angle_gamma		119.674   

_symmetry_space_group_name_H-M		'P1'
_symmetry_Int_Tables_number		1
_symmetry_cell_setting		Monoclinic

loop_
_symmetry_equiv_pos_as_xyz
'+x,+y,+z'

loop_
_atom_site_label
_atom_site_type_symbol
_atom_site_fract_x
_atom_site_fract_y
_atom_site_fract_z
1	C	0.372369	0.67481	0.999995
2	O	0.406594	0.680799	0.999991
3	C	0.341484	0.634792	0.999998
4	C	0.34754	0.605295	0
5	N	0.385851	0.612193	0
6	C	0.301904	0.627689	3e-06
7	O	0.274146	0.593198	5e-06
8	C	0.292345	0.658465	6e-06
9	C	0.255924	0.651039	5e-06
10	N	0.225872	0.611795	0
11	C	0.324719	0.698164	4e-06
12	O	0.317119	0.724778	7e-06
13	C	0.364934	0.707051	0.999999
14	C	0.393471	0.743267	0.999998
15	N	0.387675	0.775415	0
16	H	0.323894	0.57658	1e-06
17	H	0.248204	0.673083	8e-06
18	H	0.422384	0.748438	0.999997
19	C	0.627631	0.32519	0.999995
20	O	0.593406	0.319201	0.999991
21	C	0.658516	0.365208	0.999998
22	C	0.65246	0.394705	0
23	N	0.614149	0.387807	0
24	C	0.698096	0.372311	3e-06
25	O	0.725854	0.406802	5e-06
26	C	0.707655	0.341535	6e-06
27	C	0.744076	0.348961	5e-06
28	N	0.774128	0.388205	0
29	C	0.675281	0.301836	4e-06
30	O	0.682881	0.275222	7e-06
31	C	0.635066	0.292949	0.999999
32	C	0.606529	0.256733	0.999998
33	N	0.612325	0.224585	0
34	H	0.676106	0.42342	1e-06
35	H	0.751796	0.326917	8e-06
36	H	0.577616	0.251562	0.999997
37	C	0.409276	0.58917	0
38	C	0.414092	0.584435	0.189802
39	C	0.434847	0.564036	0.214939
40	C	0.445113	0.553946	0.043678
41	C	0.46629	0.533132	0.020605
42	C	0.479882	0.519767	0.167347
43	C	0.49949	0.500497	0.096986
44	C	0.500509	0.499503	0.903018
45	C	0.520118	0.480233	0.832658
46	C	0.53371	0.466868	0.979399
47	C	0.554887	0.446055	0.956325
48	C	0.565156	0.435967	0.785063
49	C	0.58591	0.415568	0.810199
50	C	0.590724	0.41083	0
51	S	0.571027	0.430186	0.145911
52	S	0.522606	0.477772	0.200928
53	S	0.477393	0.522228	0.799076
54	S	0.42897	0.569811	0.854091
55	H	0.403539	0.594807	0.305266
56	H	0.441772	0.55723	0.35412
57	H	0.476308	0.523273	0.31798
58	H	0.523692	0.476727	0.682024
59	H	0.558233	0.442776	0.645882
60	H	0.596465	0.405198	0.694733
61	C	0.410643	0.821462	0
62	C	0.415365	0.830931	0.189802
63	C	0.435715	0.871728	0.214939
64	C	0.445781	0.89191	0.043678
65	C	0.466545	0.933537	0.020605
66	C	0.479877	0.960261	0.167347
67	C	0.499101	0.998804	0.096986
68	C	0.500092	0.000799	0.903018
69	C	0.519315	0.039342	0.832658
70	C	0.532648	0.066065	0.979399
71	C	0.55341	0.107693	0.956325
72	C	0.563474	0.127874	0.785063
73	C	0.583824	0.168672	0.810199
74	C	0.588549	0.178141	0
75	S	0.569241	0.139425	0.145911
76	S	0.52177	0.044248	0.200928
77	S	0.477422	0.955354	0.799076
78	S	0.429954	0.860178	0.854091
79	H	0.405019	0.810187	0.305266
80	H	0.442505	0.885342	0.35412
81	H	0.47638	0.953242	0.31798
82	H	0.522813	0.046361	0.682024
83	H	0.556681	0.11426	0.645882
84	H	0.594168	0.189416	0.694733
85	C	0.179479	0.588772	0
86	C	0.16994	0.584037	0.189802
87	C	0.128836	0.563639	0.214939
88	C	0.108503	0.553548	0.043678
89	C	0.066563	0.532734	0.020605
90	C	0.039639	0.519376	0.167347
91	C	0.000807	0.500103	0.096986
92	C	0.998796	0.499101	0.903018
93	C	0.959964	0.479829	0.832658
94	C	0.93304	0.46647	0.979399
95	C	0.8911	0.445656	0.956325
96	C	0.870768	0.435562	0.785063
97	C	0.829664	0.415164	0.810199
98	C	0.820124	0.410433	0
99	S	0.85913	0.429792	0.145911
100	S	0.955021	0.477383	0.200928
101	S	0.044582	0.521821	0.799076
102	S	0.140473	0.569414	0.854091
103	H	0.19084	0.59441	0.305266
104	H	0.11512	0.556832	0.35412
105	H	0.04671	0.522888	0.31798
106	H	0.952893	0.476316	0.682024
107	H	0.884484	0.442367	0.645882
108	H	0.808764	0.40479	0.694733
