data_C84H36N6O6S18_2023-05-12_03:37:09
#******************************************
#
# CIF file created by Zeo++
# Zeo++ is an open source package to
# analyze microporous materials
#
#*******************************************

_cell_length_a		49.7539   
_cell_length_b		50.0523   
_cell_length_c		7   
_cell_angle_alpha		90   
_cell_angle_beta		90   
_cell_angle_gamma		119.739   

_symmetry_space_group_name_H-M		'P1'
_symmetry_Int_Tables_number		1
_symmetry_cell_setting		Monoclinic

loop_
_symmetry_equiv_pos_as_xyz
'+x,+y,+z'

loop_
_atom_site_label
_atom_site_type_symbol
_atom_site_fract_x
_atom_site_fract_y
_atom_site_fract_z
1	C	0.364484	0.673178	0.999995
2	O	0.391795	0.677966	0.999991
3	C	0.339803	0.641182	0.999998
4	C	0.344602	0.617599	0
5	N	0.375173	0.623114	0
6	C	0.308218	0.635503	3e-06
7	O	0.286036	0.607927	5e-06
8	C	0.300625	0.66011	6e-06
9	C	0.27156	0.654172	5e-06
10	N	0.247544	0.622796	0
11	C	0.326495	0.691849	4e-06
12	O	0.32046	0.713128	7e-06
13	C	0.358587	0.698954	0.999999
14	C	0.381392	0.72791	0.999998
15	N	0.376802	0.753613	0
16	H	0.325707	0.594641	1e-06
17	H	0.265425	0.671796	8e-06
18	H	0.404464	0.732045	0.999997
19	C	0.635516	0.326822	0.999995
20	O	0.608205	0.322034	0.999991
21	C	0.660197	0.358818	0.999998
22	C	0.655398	0.382401	0
23	N	0.624827	0.376886	0
24	C	0.691782	0.364497	3e-06
25	O	0.713964	0.392073	5e-06
26	C	0.699375	0.33989	6e-06
27	C	0.72844	0.345828	5e-06
28	N	0.752456	0.377204	0
29	C	0.673505	0.308151	4e-06
30	O	0.67954	0.286872	7e-06
31	C	0.641413	0.301046	0.999999
32	C	0.618608	0.27209	0.999998
33	N	0.623198	0.246387	0
34	H	0.674293	0.405359	1e-06
35	H	0.734575	0.328204	8e-06
36	H	0.595536	0.267955	0.999997
37	C	0.393837	0.604706	0
38	C	0.390953	0.607553	0.19234
39	C	0.405176	0.593526	0.298641
40	C	0.418378	0.580504	0.183735
41	C	0.434495	0.564607	0.247404
42	C	0.439713	0.55946	0.434514
43	C	0.456328	0.543074	0.449407
44	C	0.463525	0.535977	0.273252
45	C	0.481806	0.517947	0.244347
46	C	0.492153	0.50774	0.394588
47	S	0.511305	0.488851	0.32858
48	C	0.506021	0.494065	0.086935
49	C	0.490017	0.509849	0.065394
50	S	0.484734	0.51506	0.823771
51	C	0.503885	0.496173	0.757747
52	C	0.514232	0.485967	0.907983
53	C	0.532512	0.467937	0.879043
54	C	0.539704	0.460845	0.702852
55	C	0.556321	0.444455	0.717557
56	C	0.561534	0.439312	0.904619
57	C	0.577491	0.423573	0.973478
58	C	0.582707	0.418428	0.161208
59	C	0.599322	0.40204	0.176709
60	C	0.606163	0.395294	0
61	S	0.593151	0.408129	0.818683
62	S	0.545928	0.454703	0.058515
63	S	0.450112	0.549206	0.093811
64	S	0.413045	0.585761	0.946141
65	H	0.379409	0.61894	0.255124
66	H	0.405547	0.593162	0.453279
67	H	0.432062	0.567006	0.557599
68	H	0.462438	0.537046	0.584688
69	H	0.489547	0.51031	0.545606
70	H	0.506487	0.493606	0.606707
71	H	0.533597	0.466868	0.567537
72	H	0.563965	0.436916	0.594297
73	H	0.575022	0.426008	0.284125
74	H	0.605679	0.395769	0.310388
75	C	0.395174	0.790429	0
76	C	0.392333	0.784737	0.19234
77	C	0.406333	0.812793	0.298641
78	C	0.41933	0.838835	0.183735
79	C	0.435195	0.870627	0.247404
80	C	0.440333	0.880921	0.434514
81	C	0.456688	0.913694	0.449407
82	C	0.463771	0.927889	0.273252
83	C	0.481766	0.96395	0.244347
84	C	0.491953	0.984362	0.394588
85	S	0.510805	0.02214	0.32858
86	C	0.505602	0.011714	0.086935
87	C	0.489848	0.980147	0.065394
88	S	0.484647	0.969724	0.823771
89	C	0.503498	0.0075	0.757747
90	C	0.513684	0.027911	0.907983
91	C	0.531679	0.06397	0.879043
92	C	0.538758	0.078156	0.702852
93	C	0.555116	0.110934	0.717557
94	C	0.560248	0.121219	0.904619
95	C	0.575957	0.152696	0.973478
96	C	0.581092	0.162985	0.161208
97	C	0.597448	0.19576	0.176709
98	C	0.604182	0.209253	0
99	S	0.591372	0.183585	0.818683
100	S	0.544887	0.090436	0.058515
101	S	0.450567	0.901431	0.093811
102	S	0.414082	0.828317	0.946141
103	H	0.380968	0.761964	0.255124
104	H	0.406696	0.813521	0.453279
105	H	0.432802	0.86583	0.557599
106	H	0.462703	0.925748	0.584688
107	H	0.489388	0.979222	0.545606
108	H	0.506059	0.012633	0.606707
109	H	0.532746	0.066109	0.567537
110	H	0.56264	0.126013	0.594297
111	H	0.573527	0.147826	0.284125
112	H	0.603707	0.208301	0.310388
113	C	0.210508	0.604388	0
114	C	0.216234	0.607233	0.19234
115	C	0.18801	0.593204	0.298641
116	C	0.161812	0.580184	0.183735
117	C	0.129829	0.564288	0.247404
118	C	0.119474	0.559142	0.434514
119	C	0.086504	0.542755	0.449407
120	C	0.072224	0.535657	0.273252
121	C	0.035947	0.517626	0.244347
122	C	0.015413	0.507421	0.394588
123	S	0.977409	0.488532	0.32858
124	C	0.987897	0.493744	0.086935
125	C	0.019654	0.509528	0.065394
126	S	0.030139	0.514739	0.823771
127	C	0.992136	0.49585	0.757747
128	C	0.971603	0.485645	0.907983
129	C	0.935329	0.467616	0.879043
130	C	0.921058	0.460523	0.702852
131	C	0.888083	0.444134	0.717557
132	C	0.877737	0.438992	0.904619
133	C	0.846071	0.423254	0.973478
134	C	0.83572	0.41811	0.161208
135	C	0.802749	0.401723	0.176709
136	C	0.789175	0.394976	0
137	S	0.814997	0.407809	0.818683
138	S	0.908704	0.454384	0.058515
139	S	0.098841	0.548886	0.093811
140	S	0.172392	0.585444	0.946141
141	H	0.239143	0.618619	0.255124
142	H	0.187277	0.592839	0.453279
143	H	0.134655	0.566687	0.557599
144	H	0.074378	0.536728	0.584688
145	H	0.020584	0.509991	0.545606
146	H	0.986973	0.493284	0.606707
147	H	0.933177	0.466546	0.567537
148	H	0.872914	0.436594	0.594297
149	H	0.850971	0.425689	0.284125
150	H	0.790133	0.395452	0.310388
