data_C84H42N6O6S12_2023-05-13_05:40:26
#******************************************
#
# CIF file created by Zeo++
# Zeo++ is an open source package to
# analyze microporous materials
#
#*******************************************

_cell_length_a		49.6675   
_cell_length_b		49.966   
_cell_length_c		7   
_cell_angle_alpha		90   
_cell_angle_beta		90   
_cell_angle_gamma		119.739   

_symmetry_space_group_name_H-M		'P1'
_symmetry_Int_Tables_number		1
_symmetry_cell_setting		Monoclinic

loop_
_symmetry_equiv_pos_as_xyz
'+x,+y,+z'

loop_
_atom_site_label
_atom_site_type_symbol
_atom_site_fract_x
_atom_site_fract_y
_atom_site_fract_z
1	C	0.364538	0.673189	0.999995
2	O	0.391897	0.677985	0.999991
3	C	0.339814	0.641138	0.999998
4	C	0.344622	0.617514	0
5	N	0.375247	0.623039	0
6	C	0.308175	0.63545	3e-06
7	O	0.285955	0.607825	5e-06
8	C	0.300568	0.660098	6e-06
9	C	0.271453	0.65415	5e-06
10	N	0.247395	0.62272	0
11	C	0.326483	0.691893	4e-06
12	O	0.320437	0.713208	7e-06
13	C	0.358631	0.69901	0.999999
14	C	0.381475	0.728016	0.999998
15	N	0.376877	0.753763	0
16	H	0.325695	0.594516	1e-06
17	H	0.265307	0.671805	8e-06
18	H	0.404587	0.732157	0.999997
19	C	0.635462	0.326811	0.999995
20	O	0.608103	0.322015	0.999991
21	C	0.660186	0.358862	0.999998
22	C	0.655378	0.382486	0
23	N	0.624753	0.376961	0
24	C	0.691825	0.36455	3e-06
25	O	0.714045	0.392175	5e-06
26	C	0.699432	0.339902	6e-06
27	C	0.728547	0.34585	5e-06
28	N	0.752605	0.37728	0
29	C	0.673517	0.308107	4e-06
30	O	0.679563	0.286792	7e-06
31	C	0.641369	0.30099	0.999999
32	C	0.618525	0.271984	0.999998
33	N	0.623123	0.246237	0
34	H	0.674305	0.405484	1e-06
35	H	0.734693	0.328195	8e-06
36	H	0.595413	0.267843	0.999997
37	C	0.606057	0.395401	0
38	C	0.600571	0.400809	0.183704
39	C	0.58388	0.417269	0.187103
40	C	0.577253	0.423806	0.006099
41	C	0.560811	0.440021	0.955597
42	C	0.55422	0.446517	0.775467
43	C	0.537544	0.462963	0.779542
44	C	0.531409	0.469018	0.962648
45	C	0.514798	0.485401	0.02375
46	C	0.510224	0.489906	0.216029
47	C	0.494391	0.505521	0.269511
48	C	0.482372	0.517382	0.13347
49	C	0.46576	0.533766	0.194486
50	C	0.459607	0.539836	0.377497
51	C	0.442931	0.556283	0.381194
52	C	0.436351	0.562771	0.200945
53	C	0.419796	0.579099	0.155527
54	C	0.407482	0.591243	0.284701
55	C	0.3925	0.606021	0.194759
56	C	0.393943	0.604599	0
57	S	0.412702	0.586098	0.924876
58	S	0.450761	0.548556	0.030902
59	C	0.486947	0.512876	0.9412
60	C	0.502779	0.497261	0.887722
61	S	0.546425	0.454213	0.126107
62	S	0.591706	0.409555	0.83422
63	H	0.607926	0.393554	0.309583
64	H	0.577146	0.423909	0.318191
65	H	0.560909	0.439918	0.644074
66	H	0.530525	0.469881	0.650884
67	H	0.518808	0.481433	0.330485
68	H	0.491799	0.508072	0.421488
69	H	0.46662	0.53292	0.506179
70	H	0.436225	0.562898	0.51234
71	H	0.409008	0.589738	0.438278
72	H	0.381453	0.616916	0.270212
73	H	0.47836	0.521349	0.826715
74	H	0.505365	0.494715	0.735714
75	C	0.604074	0.20904	0
76	C	0.598676	0.198221	0.183704
77	C	0.582248	0.165299	0.187103
78	C	0.575724	0.152226	0.006099
79	C	0.55954	0.119795	0.955597
80	C	0.553057	0.106799	0.775467
81	C	0.536643	0.073906	0.779542
82	C	0.530599	0.0618	0.962648
83	C	0.514248	0.029035	0.02375
84	C	0.509752	0.020018	0.216029
85	C	0.494167	0.988788	0.269511
86	C	0.482329	0.965074	0.13347
87	C	0.465977	0.932305	0.194486
88	C	0.459919	0.920167	0.377497
89	C	0.443504	0.887274	0.381194
90	C	0.437028	0.874295	0.200945
91	C	0.420732	0.84164	0.155527
92	C	0.408611	0.817351	0.284701
93	C	0.393862	0.787798	0.194759
94	C	0.395281	0.790642	0
95	S	0.413746	0.827644	0.924876
96	S	0.451216	0.902723	0.030902
97	C	0.486826	0.974091	0.9412
98	C	0.502411	0.00532	0.887722
99	S	0.545376	0.091415	0.126107
100	S	0.589947	0.180731	0.83422
101	H	0.605917	0.21273	0.309583
102	H	0.575622	0.152018	0.318191
103	H	0.559643	0.119994	0.644074
104	H	0.529738	0.060065	0.650884
105	H	0.518208	0.036957	0.330485
106	H	0.491621	0.98368	0.421488
107	H	0.466821	0.934	0.506179
108	H	0.436901	0.874044	0.51234
109	H	0.410114	0.820361	0.438278
110	H	0.382988	0.766008	0.270212
111	H	0.47837	0.95715	0.826715
112	H	0.504952	0.010417	0.735714
113	C	0.789387	0.395082	0
114	C	0.800271	0.400493	0.183704
115	C	0.833391	0.416954	0.187103
116	C	0.846542	0.42349	0.006099
117	C	0.879167	0.439706	0.955597
118	C	0.892241	0.446206	0.775467
119	C	0.925331	0.462653	0.779542
120	C	0.93751	0.468704	0.962648
121	C	0.970472	0.485086	0.02375
122	C	0.979543	0.489598	0.216029
123	C	0.010961	0.505213	0.269511
124	C	0.034817	0.517067	0.13347
125	C	0.067782	0.533451	0.194486
126	C	0.079993	0.539519	0.377497
127	C	0.113083	0.555966	0.381194
128	C	0.12614	0.562456	0.200945
129	C	0.158991	0.578783	0.155527
130	C	0.183426	0.590928	0.284701
131	C	0.213156	0.605704	0.194759
132	C	0.210295	0.604281	0
133	S	0.173071	0.58578	0.924876
134	S	0.097542	0.548244	0.030902
135	C	0.025745	0.512555	0.9412
136	C	0.994329	0.496941	0.887722
137	S	0.907717	0.453894	0.126107
138	S	0.817866	0.409236	0.83422
139	H	0.785675	0.393239	0.309583
140	H	0.846751	0.423596	0.318191
141	H	0.878967	0.43961	0.644074
142	H	0.939255	0.469575	0.650884
143	H	0.962503	0.481132	0.330485
144	H	0.016099	0.50777	0.421488
145	H	0.066077	0.532602	0.506179
146	H	0.126393	0.56258	0.51234
147	H	0.180397	0.589423	0.438278
148	H	0.235077	0.616599	0.270212
149	H	0.042789	0.521024	0.826715
150	H	0.989201	0.49439	0.735714
