data_C60H24N6O6S12_2023-05-14_15:47:27
#******************************************
#
# CIF file created by Zeo++
# Zeo++ is an open source package to
# analyze microporous materials
#
#*******************************************

_cell_length_a		39.5583   
_cell_length_b		39.8569   
_cell_length_c		7   
_cell_angle_alpha		90   
_cell_angle_beta		90   
_cell_angle_gamma		119.673   

_symmetry_space_group_name_H-M		'P1'
_symmetry_Int_Tables_number		1
_symmetry_cell_setting		Monoclinic

loop_
_symmetry_equiv_pos_as_xyz
'+x,+y,+z'

loop_
_atom_site_label
_atom_site_type_symbol
_atom_site_fract_x
_atom_site_fract_y
_atom_site_fract_z
1	C	0.372502	0.674838	0.999995
2	O	0.406843	0.680846	0.999991
3	C	0.341513	0.634685	0.999998
4	C	0.347589	0.605088	0
5	N	0.386031	0.612009	0
6	C	0.301798	0.627558	3e-06
7	O	0.273946	0.59295	5e-06
8	C	0.292206	0.658438	6e-06
9	C	0.25566	0.650986	5e-06
10	N	0.225507	0.61161	0
11	C	0.324689	0.69827	4e-06
12	O	0.317063	0.724974	7e-06
13	C	0.365041	0.707187	0.999999
14	C	0.393675	0.743525	0.999998
15	N	0.387858	0.775782	0
16	H	0.323864	0.576276	1e-06
17	H	0.247914	0.673104	8e-06
18	H	0.422686	0.748714	0.999997
19	C	0.627498	0.325162	0.999995
20	O	0.593157	0.319154	0.999991
21	C	0.658487	0.365315	0.999998
22	C	0.652411	0.394912	0
23	N	0.613969	0.387991	0
24	C	0.698202	0.372442	3e-06
25	O	0.726054	0.40705	5e-06
26	C	0.707794	0.341562	6e-06
27	C	0.74434	0.349014	5e-06
28	N	0.774493	0.38839	0
29	C	0.675311	0.30173	4e-06
30	O	0.682937	0.275026	7e-06
31	C	0.634959	0.292813	0.999999
32	C	0.606325	0.256475	0.999998
33	N	0.612142	0.224218	0
34	H	0.676136	0.423724	1e-06
35	H	0.752086	0.326896	8e-06
36	H	0.577314	0.251286	0.999997
37	C	0.590464	0.411092	0
38	C	0.587405	0.414097	0.19326
39	C	0.566896	0.434253	0.23651
40	C	0.555052	0.445894	0.074953
41	C	0.533675	0.466904	0.070547
42	C	0.521445	0.478924	0.228621
43	C	0.501199	0.498822	0.175734
44	C	0.49839	0.501581	0.983406
45	C	0.478145	0.521478	0.930487
46	C	0.46593	0.533484	0.088597
47	C	0.444568	0.554478	0.089896
48	C	0.432028	0.566803	0.246323
49	C	0.411732	0.586751	0.194372
50	C	0.409536	0.588908	0
51	S	0.43112	0.567695	0.880853
52	S	0.479054	0.520587	0.299664
53	S	0.520537	0.479815	0.859656
54	S	0.569432	0.431762	0.871971
55	H	0.59902	0.402681	0.29898
56	H	0.561263	0.439788	0.381201
57	H	0.526415	0.474041	0.375476
58	H	0.473185	0.526352	0.78349
59	H	0.437007	0.56191	0.39335
60	H	0.399664	0.598611	0.295187
61	C	0.588287	0.177617	0
62	C	0.585289	0.171606	0.19326
63	C	0.565182	0.131294	0.23651
64	C	0.553569	0.108012	0.074953
65	C	0.53261	0.065993	0.070547
66	C	0.520619	0.041953	0.228621
67	C	0.500769	0.002156	0.175734
68	C	0.498017	0.996638	0.983406
69	C	0.478169	0.956844	0.930487
70	C	0.466192	0.932832	0.088597
71	C	0.445249	0.890844	0.089896
72	C	0.432954	0.866194	0.246323
73	C	0.413055	0.8263	0.194372
74	C	0.410903	0.821984	0
75	S	0.432065	0.864411	0.880853
76	S	0.479057	0.958627	0.299664
77	S	0.519731	0.040169	0.859656
78	S	0.567666	0.136277	0.871971
79	H	0.596677	0.194437	0.29898
80	H	0.55966	0.120222	0.381201
81	H	0.52549	0.05172	0.375476
82	H	0.473307	0.947095	0.78349
83	H	0.437835	0.875981	0.39335
84	H	0.401224	0.802579	0.295187
85	C	0.820645	0.410692	0
86	C	0.826702	0.413698	0.19326
87	C	0.867318	0.433855	0.23651
88	C	0.890775	0.445495	0.074953
89	C	0.933111	0.466505	0.070547
90	C	0.957331	0.478524	0.228621
91	C	0.997428	0.498423	0.175734
92	C	0.002988	0.501183	0.983406
93	C	0.043081	0.521079	0.930487
94	C	0.067274	0.533085	0.088597
95	C	0.109578	0.554079	0.089896
96	C	0.134414	0.566404	0.246323
97	C	0.174609	0.586351	0.194372
98	C	0.178957	0.588509	0
99	S	0.136211	0.567296	0.880853
100	S	0.041284	0.520187	0.299664
101	S	0.959128	0.479417	0.859656
102	S	0.862297	0.431362	0.871971
103	H	0.803698	0.402283	0.29898
104	H	0.878472	0.439391	0.381201
105	H	0.947491	0.47364	0.375476
106	H	0.052904	0.525955	0.78349
107	H	0.124553	0.561511	0.39335
108	H	0.198508	0.598212	0.295187
