data_C105H54N6O6S18_2023-05-12_06:52:57
#******************************************
#
# CIF file created by Zeo++
# Zeo++ is an open source package to
# analyze microporous materials
#
#*******************************************

_cell_length_a		57.9158   
_cell_length_b		58.2143   
_cell_length_c		7   
_cell_angle_alpha		90   
_cell_angle_beta		90   
_cell_angle_gamma		119.776   

_symmetry_space_group_name_H-M		'P1'
_symmetry_Int_Tables_number		1
_symmetry_cell_setting		Monoclinic

loop_
_symmetry_equiv_pos_as_xyz
'+x,+y,+z'

loop_
_atom_site_label
_atom_site_type_symbol
_atom_site_fract_x
_atom_site_fract_y
_atom_site_fract_z
1	C	0.360098	0.672267	0.999995
2	O	0.383563	0.676385	0.999991
3	C	0.338875	0.644747	0.999998
4	C	0.342983	0.624463	0
5	N	0.369249	0.629207	0
6	C	0.311738	0.639863	3e-06
7	O	0.292665	0.616144	5e-06
8	C	0.30523	0.661027	6e-06
9	C	0.280258	0.65592	5e-06
10	N	0.259606	0.628933	0
11	C	0.327475	0.688326	4e-06
12	O	0.322304	0.706628	7e-06
13	C	0.355049	0.694438	0.999999
14	C	0.374658	0.719343	0.999998
15	N	0.370731	0.74145	0
16	H	0.326736	0.604716	1e-06
17	H	0.274999	0.671079	8e-06
18	H	0.394481	0.722899	0.999997
19	C	0.639902	0.327733	0.999995
20	O	0.616437	0.323615	0.999991
21	C	0.661125	0.355253	0.999998
22	C	0.657017	0.375537	0
23	N	0.630751	0.370793	0
24	C	0.688262	0.360137	3e-06
25	O	0.707335	0.383856	5e-06
26	C	0.69477	0.338973	6e-06
27	C	0.719742	0.34408	5e-06
28	N	0.740394	0.371067	0
29	C	0.672525	0.311674	4e-06
30	O	0.677696	0.293372	7e-06
31	C	0.644951	0.305562	0.999999
32	C	0.625342	0.280657	0.999998
33	N	0.629269	0.25855	0
34	H	0.673264	0.395284	1e-06
35	H	0.725001	0.328921	8e-06
36	H	0.605519	0.277101	0.999997
37	C	0.385271	0.613374	0
38	C	0.385949	0.601432	0.8332
39	C	0.399577	0.586859	0.858788
40	C	0.408691	0.588173	0.044017
41	C	0.423343	0.575777	0.115603
42	C	0.437072	0.566586	0.00784
43	C	0.449257	0.555166	0.121325
44	C	0.444667	0.555663	0.314786
45	C	0.453849	0.545869	0.471025
46	C	0.450429	0.547593	0.664777
47	C	0.462153	0.535696	0.777954
48	C	0.474533	0.524868	0.671047
49	C	0.488299	0.511448	0.731388
50	C	0.491908	0.507991	0.916739
51	C	0.506951	0.493321	0.935957
52	C	0.511631	0.48868	0.730664
53	C	0.525157	0.475407	0.661842
54	C	0.536635	0.463831	0.770272
55	C	0.548656	0.45212	0.658443
56	C	0.546357	0.454783	0.464273
57	C	0.556085	0.445391	0.308921
58	C	0.555107	0.449327	0.114912
59	C	0.566619	0.437127	0.00264
60	C	0.576358	0.424036	0.111856
61	C	0.588987	0.409543	0.041762
62	C	0.587488	0.400049	0.857692
63	C	0.602376	0.386714	0.833415
64	C	0.614729	0.386626	0
65	S	0.608812	0.402066	0.182108
66	S	0.57112	0.426785	0.34982
67	S	0.529497	0.471604	0.423048
68	C	0.500589	0.499414	0.618325
69	S	0.471375	0.529692	0.431509
70	S	0.425482	0.570148	0.35368
71	S	0.400505	0.607443	0.18384
72	H	0.37727	0.60287	0.699855
73	H	0.402334	0.575786	0.745369
74	H	0.438632	0.568011	0.853619
75	H	0.460902	0.547027	0.061208
76	H	0.439986	0.556976	0.725607
77	H	0.46137	0.535215	0.932549
78	H	0.485298	0.514529	0.038673
79	H	0.525758	0.505352	0.011429
80	H	0.495052	0.474605	0.011835
81	H	0.536493	0.463677	0.925054
82	H	0.55854	0.442233	0.720296
83	H	0.546564	0.46052	0.053572
84	H	0.567717	0.438222	0.848187
85	H	0.576072	0.402337	0.744199
86	H	0.603738	0.377819	0.7011
87	H	0.500384	0.499504	0.464057
88	C	0.386538	0.773116	0
89	C	0.398511	0.785676	0.8332
90	C	0.413066	0.813712	0.858788
91	C	0.411706	0.82145	0.044017
92	C	0.424072	0.848334	0.115603
93	C	0.433228	0.871113	0.00784
94	C	0.444626	0.894577	0.121325
95	C	0.444148	0.889525	0.314786
96	C	0.453929	0.908389	0.471025
97	C	0.452216	0.903278	0.664777
98	C	0.464094	0.926759	0.777954
99	C	0.474898	0.949828	0.671047
100	C	0.488295	0.976852	0.731388
101	C	0.491746	0.983876	0.916739
102	C	0.506391	0.013412	0.935957
103	C	0.511024	0.022678	0.730664
104	C	0.524275	0.049317	0.661842
105	C	0.535832	0.072235	0.770272
106	C	0.547523	0.095825	0.658443
107	C	0.544863	0.090892	0.464273
108	C	0.554238	0.109898	0.308921
109	C	0.550295	0.105009	0.114912
110	C	0.562479	0.128582	0.00264
111	C	0.575563	0.151281	0.111856
112	C	0.590041	0.178244	0.041762
113	C	0.59957	0.186209	0.857692
114	C	0.612877	0.214262	0.833415
115	C	0.612909	0.226611	0
116	S	0.597451	0.205367	0.182108
117	S	0.57283	0.143345	0.34982
118	S	0.528069	0.057412	0.423048
119	C	0.500309	0.001032	0.618325
120	S	0.470074	0.941891	0.431509
121	S	0.429708	0.856061	0.35368
122	S	0.392418	0.794142	0.18384
123	H	0.397108	0.77563	0.699855
124	H	0.424158	0.827471	0.745369
125	H	0.431792	0.871242	0.853619
126	H	0.452736	0.914238	0.061208
127	H	0.442852	0.883571	0.725607
128	H	0.464581	0.926461	0.932549
129	H	0.485219	0.970806	0.038673
130	H	0.49424	0.020105	0.011429
131	H	0.525214	0.020232	0.011835
132	H	0.535987	0.072247	0.925054
133	H	0.557394	0.115479	0.720296
134	H	0.539108	0.085388	0.053572
135	H	0.561376	0.128582	0.848187
136	H	0.597327	0.172598	0.744199
137	H	0.621791	0.224468	0.7011
138	H	0.500219	0.000738	0.464057
139	C	0.227778	0.6131	0
140	C	0.215127	0.612481	0.8332
141	C	0.186945	0.59902	0.858788
142	C	0.17919	0.589966	0.044017
143	C	0.152172	0.575478	0.115603
144	C	0.129286	0.561891	0.00784
145	C	0.105703	0.549847	0.121325
146	C	0.110771	0.554401	0.314786
147	C	0.091809	0.545331	0.471025
148	C	0.096942	0.548718	0.664777
149	C	0.07334	0.537134	0.777954
150	C	0.050156	0.524894	0.671047
151	C	0.022993	0.51129	0.731388
152	C	0.015933	0.507723	0.916739
153	C	0.986246	0.492857	0.935957
154	C	0.976932	0.488232	0.730664
155	C	0.950155	0.474865	0.661842
156	C	0.92712	0.463524	0.770272
157	C	0.903408	0.451644	0.658443
158	C	0.908368	0.453914	0.464273
159	C	0.889264	0.4443	0.308921
160	C	0.894186	0.445253	0.114912
161	C	0.870489	0.433881	0.00264
162	C	0.847665	0.424272	0.111856
163	C	0.820559	0.411802	0.041762
164	C	0.812529	0.413332	0.857692
165	C	0.784334	0.398614	0.833415
166	C	0.771949	0.386352	0
167	S	0.793324	0.392156	0.182108
168	S	0.855637	0.429459	0.34982
169	S	0.94202	0.470574	0.423048
170	C	0.998689	0.499144	0.618325
171	S	0.058138	0.528007	0.431509
172	S	0.144397	0.57338	0.35368
173	S	0.206664	0.598005	0.18384
174	H	0.225208	0.621089	0.699855
175	H	0.173095	0.596333	0.745369
176	H	0.129163	0.560336	0.853619
177	H	0.085948	0.538325	0.061208
178	H	0.116749	0.559042	0.725607
179	H	0.073637	0.537914	0.932549
180	H	0.02907	0.514255	0.038673
181	H	0.979588	0.474134	0.011429
182	H	0.979321	0.504752	0.011835
183	H	0.927107	0.463665	0.925054
184	H	0.883653	0.441877	0.720296
185	H	0.913914	0.453682	0.053572
186	H	0.870494	0.432786	0.848187
187	H	0.826189	0.424654	0.744199
188	H	0.774058	0.397302	0.7011
189	H	0.998984	0.499347	0.464057
