data_C66H42N6O6_2023-05-30_00:56:16
#******************************************
#
# CIF file created by Zeo++
# Zeo++ is an open source package to
# analyze microporous materials
#
#*******************************************

_cell_length_a		35.642   
_cell_length_b		35.9406   
_cell_length_c		7   
_cell_angle_alpha		90   
_cell_angle_beta		90   
_cell_angle_gamma		119.637   

_symmetry_space_group_name_H-M		'P1'
_symmetry_Int_Tables_number		1
_symmetry_cell_setting		Monoclinic

loop_
_symmetry_equiv_pos_as_xyz
'+x,+y,+z'

loop_
_atom_site_label
_atom_site_type_symbol
_atom_site_fract_x
_atom_site_fract_y
_atom_site_fract_z
1	C	0.376799	0.675725	0.999995
2	O	0.414909	0.682386	0.999991
3	C	0.342437	0.631212	0.999998
4	C	0.349205	0.598403	0
5	N	0.391865	0.606075	0
6	C	0.298364	0.623312	3e-06
7	O	0.267479	0.584946	5e-06
8	C	0.287693	0.657544	6e-06
9	C	0.247138	0.649283	5e-06
10	N	0.213703	0.605633	0
11	C	0.323714	0.701701	4e-06
12	O	0.315228	0.731305	7e-06
13	C	0.368492	0.711586	0.999999
14	C	0.400243	0.75187	0.999998
15	N	0.393762	0.787629	0
16	H	0.322895	0.566462	1e-06
17	H	0.238523	0.673803	8e-06
18	H	0.432438	0.757622	0.999997
19	C	0.623201	0.324275	0.999995
20	O	0.585091	0.317614	0.999991
21	C	0.657563	0.368788	0.999998
22	C	0.650795	0.401597	0
23	N	0.608135	0.393925	0
24	C	0.701636	0.376688	3e-06
25	O	0.732521	0.415054	5e-06
26	C	0.712307	0.342456	6e-06
27	C	0.752862	0.350717	5e-06
28	N	0.786297	0.394367	0
29	C	0.676286	0.298299	4e-06
30	O	0.684772	0.268695	7e-06
31	C	0.631508	0.288414	0.999999
32	C	0.599757	0.24813	0.999998
33	N	0.606238	0.212371	0
34	H	0.677105	0.433538	1e-06
35	H	0.761477	0.326197	8e-06
36	H	0.567562	0.242378	0.999997
37	C	0.582029	0.419534	0
38	C	0.560678	0.439516	0.943801
39	C	0.54631	0.453147	0.110247
40	C	0.522255	0.476509	0.112065
41	C	0.533637	0.510909	0.987289
42	C	0.510795	0.533316	0.987289
43	C	0.476065	0.521819	0.112065
44	C	0.452248	0.545417	0.110247
45	C	0.439992	0.558145	0.267883
46	C	0.416769	0.581937	0.213441
47	C	0.417971	0.580466	0
48	C	0.438348	0.559515	0.943801
49	C	0.464577	0.487312	0.236398
50	C	0.487418	0.464906	0.236398
51	C	0.559279	0.441129	0.267883
52	C	0.583525	0.418356	0.213441
53	H	0.554425	0.444699	0.79816
54	H	0.560704	0.520953	0.889707
55	H	0.520762	0.560135	0.889707
56	H	0.446053	0.552919	0.413898
57	H	0.383682	0.565507	0.268223
58	H	0.433987	0.614804	0.267407
59	H	0.443638	0.553374	0.79816
60	H	0.4374	0.477167	0.33339
61	H	0.477349	0.437978	0.33339
62	H	0.553946	0.44708	0.413898
63	H	0.616661	0.435608	0.267408
64	H	0.567139	0.385543	0.268221
65	C	0.579798	0.160711	0
66	C	0.559878	0.119778	0.943801
67	C	0.546286	0.092049	0.110247
68	C	0.52299	0.045089	0.112065
69	C	0.488344	0.022186	0.987289
70	C	0.465998	0.977372	0.987289
71	C	0.477802	0.954469	0.112065
72	C	0.454266	0.90751	0.110247
73	C	0.441567	0.882764	0.267883
74	C	0.417833	0.836199	0.213441
75	C	0.419302	0.838847	0
76	C	0.440203	0.87978	0.943801
77	C	0.512556	0.977373	0.236398
78	C	0.534902	0.022185	0.236398
79	C	0.558267	0.116795	0.267883
80	C	0.580971	0.163359	0.213441
81	H	0.554716	0.108455	0.79816
82	H	0.478056	0.038961	0.889707
83	H	0.43898	0.960598	0.889707
84	H	0.446774	0.893941	0.413898
85	H	0.434581	0.819817	0.268223
86	H	0.384685	0.820584	0.267407
87	H	0.446335	0.891104	0.79816
88	H	0.522947	0.960591	0.33339
89	H	0.56203	0.038967	0.33339
90	H	0.552327	0.105617	0.413898
91	H	0.563396	0.178974	0.267408
92	H	0.614058	0.179742	0.268221
93	C	0.837503	0.419092	0
94	C	0.878774	0.440043	0.943801
95	C	0.906733	0.45414	0.110247
96	C	0.954085	0.477738	0.112065
97	C	0.977348	0.466241	0.987289
98	C	0.022537	0.488648	0.987289
99	C	0.045462	0.523048	0.112065
100	C	0.092815	0.54641	0.110247
101	C	0.11777	0.558428	0.267883
102	C	0.164728	0.581201	0.213441
103	C	0.162056	0.580023	0
104	C	0.120778	0.560042	0.943801
105	C	0.022197	0.534652	0.236398
106	C	0.97701	0.512245	0.236398
107	C	0.881783	0.441413	0.267883
108	C	0.834833	0.417621	0.213441
109	H	0.890188	0.446183	0.79816
110	H	0.960569	0.439423	0.889707
111	H	0.039587	0.478604	0.889707
112	H	0.106502	0.552477	0.413898
113	H	0.181066	0.614013	0.268223
114	H	0.180658	0.563948	0.267407
115	H	0.109356	0.554859	0.79816
116	H	0.038982	0.561579	0.33339
117	H	0.959951	0.522391	0.33339
118	H	0.893056	0.446639	0.413898
119	H	0.819273	0.384754	0.267408
120	H	0.818132	0.434051	0.268221
