data_C78H30N6O6S12_2023-05-13_20:35:10
#******************************************
#
# CIF file created by Zeo++
# Zeo++ is an open source package to
# analyze microporous materials
#
#*******************************************

_cell_length_a		49.9964   
_cell_length_b		50.2949   
_cell_length_c		7   
_cell_angle_alpha		90   
_cell_angle_beta		90   
_cell_angle_gamma		119.741   

_symmetry_space_group_name_H-M		'P1'
_symmetry_Int_Tables_number		1
_symmetry_cell_setting		Monoclinic

loop_
_symmetry_equiv_pos_as_xyz
'+x,+y,+z'

loop_
_atom_site_label
_atom_site_type_symbol
_atom_site_fract_x
_atom_site_fract_y
_atom_site_fract_z
1	C	0.364333	0.673146	0.999995
2	O	0.391512	0.677911	0.999991
3	C	0.33977	0.641305	0.999998
4	C	0.344546	0.617835	0
5	N	0.374969	0.623323	0
6	C	0.308339	0.635653	3e-06
7	O	0.286264	0.608209	5e-06
8	C	0.300784	0.660141	6e-06
9	C	0.27186	0.654232	5e-06
10	N	0.247959	0.623007	0
11	C	0.326529	0.691728	4e-06
12	O	0.320523	0.712904	7e-06
13	C	0.358465	0.698799	0.999999
14	C	0.381161	0.727615	0.999998
15	N	0.376593	0.753195	0
16	H	0.325742	0.594987	1e-06
17	H	0.265755	0.671772	8e-06
18	H	0.40412	0.73173	0.999997
19	C	0.635667	0.326854	0.999995
20	O	0.608488	0.322089	0.999991
21	C	0.66023	0.358695	0.999998
22	C	0.655454	0.382165	0
23	N	0.625031	0.376677	0
24	C	0.691661	0.364347	3e-06
25	O	0.713736	0.391791	5e-06
26	C	0.699216	0.339859	6e-06
27	C	0.72814	0.345768	5e-06
28	N	0.752041	0.376993	0
29	C	0.673471	0.308272	4e-06
30	O	0.679477	0.287096	7e-06
31	C	0.641535	0.301201	0.999999
32	C	0.618839	0.272385	0.999998
33	N	0.623407	0.246805	0
34	H	0.674258	0.405013	1e-06
35	H	0.734245	0.328228	8e-06
36	H	0.59588	0.26827	0.999997
37	C	0.606458	0.394996	0
38	C	0.613496	0.392127	0.185165
39	S	0.597652	0.406643	0.340592
40	C	0.581187	0.416897	0.15906
41	C	0.56304	0.431556	0.198304
42	C	0.556565	0.439834	0.373755
43	C	0.537872	0.45388	0.358818
44	C	0.530488	0.456006	0.172333
45	C	0.512133	0.468936	0.112617
46	C	0.496671	0.479822	0.062345
47	C	0.476842	0.493776	0.997845
48	C	0.461378	0.504659	0.947544
49	C	0.443015	0.517576	0.887776
50	C	0.425543	0.509633	0.723991
51	C	0.409687	0.526506	0.70257
52	C	0.415414	0.546959	0.850506
53	C	0.403355	0.567689	0.875959
54	C	0.409584	0.588569	0.02227
55	C	0.393542	0.605004	0
56	C	0.375432	0.596833	0.839922
57	S	0.377853	0.568932	0.714897
58	S	0.440218	0.545088	0.013616
59	S	0.546008	0.441186	0.01776
60	C	0.588056	0.409077	0.98308
61	H	0.62705	0.382316	0.237535
62	H	0.56476	0.436124	0.508938
63	H	0.530342	0.461945	0.479744
64	H	0.424052	0.492569	0.623419
65	H	0.394765	0.523501	0.582506
66	H	0.42499	0.591913	0.140114
67	H	0.360941	0.605711	0.78967
68	H	0.580223	0.413285	0.848077
69	C	0.604482	0.20985	0
70	C	0.607324	0.219682	0.185165
71	S	0.592841	0.189532	0.340592
72	C	0.582638	0.163007	0.15906
73	C	0.568025	0.130433	0.198304
74	C	0.559753	0.115778	0.373755
75	C	0.545757	0.083271	0.358818
76	C	0.543662	0.073835	0.172333
77	C	0.530785	0.042775	0.112617
78	C	0.519943	0.016615	0.062345
79	C	0.506045	0.983072	0.997845
80	C	0.495206	0.956914	0.947544
81	C	0.482341	0.925858	0.887776
82	C	0.490402	0.916436	0.723991
83	C	0.473555	0.88393	0.70257
84	C	0.453003	0.869261	0.850506
85	C	0.432267	0.836684	0.875959
86	C	0.411284	0.822088	0.02227
87	C	0.394877	0.789833	0
88	C	0.40317	0.780006	0.839922
89	S	0.431152	0.810162	0.714897
90	S	0.454751	0.895715	0.013616
91	S	0.558451	0.103965	0.01776
92	C	0.59045	0.177597	0.98308
93	H	0.617097	0.242881	0.237535
94	H	0.563433	0.127594	0.508938
95	H	0.537705	0.067783	0.479744
96	H	0.507531	0.931933	0.623419
97	H	0.476648	0.872125	0.582506
98	H	0.407849	0.834037	0.140114
99	H	0.394338	0.756806	0.78967
100	H	0.586268	0.165646	0.848077
101	C	0.788582	0.394679	0
102	C	0.778702	0.387716	0.185165
103	S	0.809029	0.40335	0.340592
104	C	0.835696	0.419621	0.15906
105	C	0.868456	0.437537	0.198304
106	C	0.883204	0.443914	0.373755
107	C	0.915893	0.462374	0.358818
108	C	0.925371	0.469684	0.172333
109	C	0.956603	0.487815	0.112617
110	C	0.982907	0.503089	0.062345
111	C	0.016635	0.522677	0.997845
112	C	0.042937	0.537952	0.947544
113	C	0.074165	0.556091	0.887776
114	C	0.083577	0.573456	0.723991
115	C	0.11628	0.589089	0.70257
116	C	0.131105	0.583305	0.850506
117	C	0.1639	0.595153	0.875959
118	C	0.178654	0.588868	0.02227
119	C	0.211102	0.604688	0
120	C	0.220919	0.622686	0.839922
121	S	0.190516	0.620431	0.714897
122	S	0.104553	0.558722	0.013616
123	S	0.895063	0.454374	0.01776
124	C	0.821017	0.412851	0.98308
125	H	0.755375	0.374328	0.237535
126	H	0.871329	0.435808	0.508938
127	H	0.931475	0.469798	0.479744
128	H	0.067938	0.575023	0.623419
129	H	0.128108	0.6039	0.582506
130	H	0.166683	0.573576	0.140114
131	H	0.244243	0.637007	0.78967
132	H	0.83303	0.420595	0.848077
