data_C78H36N6O6S15_2023-05-12_17:48:24
#******************************************
#
# CIF file created by Zeo++
# Zeo++ is an open source package to
# analyze microporous materials
#
#*******************************************

_cell_length_a		44.892   
_cell_length_b		45.1905   
_cell_length_c		7   
_cell_angle_alpha		90   
_cell_angle_beta		90   
_cell_angle_gamma		119.711   

_symmetry_space_group_name_H-M		'P1'
_symmetry_Int_Tables_number		1
_symmetry_cell_setting		Monoclinic

loop_
_symmetry_equiv_pos_as_xyz
'+x,+y,+z'

loop_
_atom_site_label
_atom_site_type_symbol
_atom_site_fract_x
_atom_site_fract_y
_atom_site_fract_z
1	C	0.367854	0.673876	0.999995
2	O	0.398119	0.679178	0.999991
3	C	0.340519	0.638449	0.999998
4	C	0.345853	0.612335	0
5	N	0.379732	0.618442	0
6	C	0.305518	0.63216	3e-06
7	O	0.280951	0.601625	5e-06
8	C	0.297087	0.659406	6e-06
9	C	0.264878	0.652831	5e-06
10	N	0.23828	0.618089	0
11	C	0.325738	0.694551	4e-06
12	O	0.319036	0.718112	7e-06
13	C	0.361302	0.702418	0.999999
14	C	0.386558	0.73448	0.999998
15	N	0.381455	0.762941	0
16	H	0.324926	0.586914	1e-06
17	H	0.258067	0.672347	8e-06
18	H	0.412126	0.739058	0.999997
19	C	0.632146	0.326124	0.999995
20	O	0.601881	0.320822	0.999991
21	C	0.659481	0.361551	0.999998
22	C	0.654147	0.387665	0
23	N	0.620268	0.381558	0
24	C	0.694482	0.36784	3e-06
25	O	0.719049	0.398375	5e-06
26	C	0.702913	0.340594	6e-06
27	C	0.735122	0.347169	5e-06
28	N	0.76172	0.381911	0
29	C	0.674262	0.305449	4e-06
30	O	0.680964	0.281888	7e-06
31	C	0.638698	0.297582	0.999999
32	C	0.613442	0.26552	0.999998
33	N	0.618545	0.237059	0
34	H	0.675074	0.413086	1e-06
35	H	0.741933	0.327653	8e-06
36	H	0.587874	0.260942	0.999997
37	C	0.599571	0.401941	0
38	C	0.588607	0.412742	0.84643
39	S	0.5675	0.433529	0.918504
40	C	0.572995	0.428115	0.157426
41	C	0.560282	0.440634	0.310197
42	C	0.563616	0.43735	0.504654
43	C	0.548279	0.452455	0.618438
44	C	0.533538	0.466972	0.508252
45	C	0.514506	0.485716	0.589203
46	C	0.510701	0.489461	0.781166
47	S	0.488938	0.510895	0.8229
48	C	0.484067	0.515692	0.583004
49	C	0.466325	0.533165	0.515337
50	C	0.451286	0.547978	0.622209
51	C	0.436024	0.563008	0.50741
52	C	0.439499	0.559585	0.313601
53	C	0.426895	0.571997	0.159721
54	C	0.40903	0.589589	0.178794
55	C	0.400429	0.598059	0
56	C	0.411504	0.587154	0.84738
57	S	0.43256	0.566419	0.921265
58	S	0.461439	0.537976	0.276108
59	C	0.499141	0.500847	0.475712
60	S	0.53833	0.462253	0.270617
61	C	0.590844	0.410535	0.178052
62	H	0.59182	0.409578	0.696109
63	H	0.576501	0.424661	0.565332
64	H	0.548367	0.452368	0.773044
65	H	0.519499	0.480797	0.901071
66	H	0.451002	0.548259	0.776944
67	H	0.423107	0.57573	0.567213
68	H	0.402431	0.596086	0.315207
69	H	0.408397	0.590214	0.69679
70	H	0.499202	0.500788	0.32096
71	H	0.597346	0.404129	0.315014
72	C	0.597492	0.195943	0
73	C	0.586714	0.174344	0.84643
74	S	0.565972	0.132771	0.918504
75	C	0.571374	0.143596	0.157426
76	C	0.558882	0.118557	0.310197
77	C	0.562158	0.125124	0.504654
78	C	0.547086	0.094915	0.618438
79	C	0.532601	0.065882	0.508252
80	C	0.513897	0.028394	0.589203
81	C	0.510159	0.020902	0.781166
82	S	0.488772	0.978036	0.8229
83	C	0.483985	0.968441	0.583004
84	C	0.466549	0.933495	0.515337
85	C	0.451768	0.903872	0.622209
86	C	0.43677	0.873812	0.50741
87	C	0.440186	0.880657	0.313601
88	C	0.427801	0.855832	0.159721
89	C	0.410246	0.820646	0.178794
90	C	0.401794	0.803706	0
91	C	0.412676	0.825518	0.84738
92	S	0.433366	0.866989	0.921265
93	S	0.461748	0.923872	0.276108
94	C	0.498798	0.998131	0.475712
95	S	0.537309	0.075318	0.270617
96	C	0.588917	0.178754	0.178052
97	H	0.589871	0.180671	0.696109
98	H	0.574821	0.150503	0.565332
99	H	0.547173	0.095088	0.773044
100	H	0.518805	0.03823	0.901071
101	H	0.451487	0.903311	0.776944
102	H	0.424076	0.848369	0.567213
103	H	0.403763	0.80765	0.315207
104	H	0.409622	0.819399	0.69679
105	H	0.498857	0.998251	0.32096
106	H	0.595308	0.191563	0.315014
107	C	0.802404	0.401588	0
108	C	0.824146	0.412386	0.84643
109	S	0.865995	0.433172	0.918504
110	C	0.855098	0.427761	0.157426
111	C	0.880303	0.440281	0.310197
112	C	0.873693	0.436998	0.504654
113	C	0.904102	0.452102	0.618438
114	C	0.933328	0.466619	0.508252
115	C	0.971065	0.485362	0.589203
116	C	0.978607	0.489109	0.781166
117	S	0.021758	0.510542	0.8229
118	C	0.031415	0.515338	0.583004
119	C	0.066594	0.532811	0.515337
120	C	0.096413	0.547622	0.622209
121	C	0.126673	0.562652	0.50741
122	C	0.119783	0.55923	0.313601
123	C	0.144772	0.571643	0.159721
124	C	0.180192	0.589237	0.178794
125	C	0.197245	0.597707	0
126	C	0.175288	0.5868	0.84738
127	S	0.133541	0.566063	0.921265
128	S	0.07628	0.537624	0.276108
129	C	0.001529	0.500494	0.475712
130	S	0.923829	0.4619	0.270617
131	C	0.819707	0.410183	0.178052
132	H	0.817777	0.409222	0.696109
133	H	0.848146	0.424308	0.565332
134	H	0.903928	0.452016	0.773044
135	H	0.961164	0.480445	0.901071
136	H	0.096978	0.547902	0.776944
137	H	0.152284	0.575373	0.567213
138	H	0.193274	0.595735	0.315207
139	H	0.181447	0.589859	0.69679
140	H	0.001408	0.500434	0.32096
141	H	0.806813	0.40378	0.315014
