data_C54H24N12O6S6_2023-05-30_08:20:34
#******************************************
#
# CIF file created by Zeo++
# Zeo++ is an open source package to
# analyze microporous materials
#
#*******************************************

_cell_length_a		35.8671   
_cell_length_b		36.1657   
_cell_length_c		7   
_cell_angle_alpha		90   
_cell_angle_beta		90   
_cell_angle_gamma		119.639   

_symmetry_space_group_name_H-M		'P1'
_symmetry_Int_Tables_number		1
_symmetry_cell_setting		Monoclinic

loop_
_symmetry_equiv_pos_as_xyz
'+x,+y,+z'

loop_
_atom_site_label
_atom_site_type_symbol
_atom_site_fract_x
_atom_site_fract_y
_atom_site_fract_z
1	C	0.376526	0.675669	0.999995
2	O	0.414398	0.682288	0.999991
3	C	0.342378	0.631432	0.999998
4	C	0.349102	0.598826	0
5	N	0.391495	0.606451	0
6	C	0.298582	0.623581	3e-06
7	O	0.267889	0.585453	5e-06
8	C	0.287979	0.657601	6e-06
9	C	0.247678	0.649391	5e-06
10	N	0.214451	0.606011	0
11	C	0.323776	0.701484	4e-06
12	O	0.315345	0.730904	7e-06
13	C	0.368274	0.711308	0.999999
14	C	0.399827	0.751341	0.999998
15	N	0.393388	0.786879	0
16	H	0.322956	0.567084	1e-06
17	H	0.239118	0.673759	8e-06
18	H	0.43182	0.757058	0.999997
19	C	0.623474	0.324331	0.999995
20	O	0.585602	0.317712	0.999991
21	C	0.657622	0.368568	0.999998
22	C	0.650898	0.401174	0
23	N	0.608505	0.393549	0
24	C	0.701418	0.376419	3e-06
25	O	0.732111	0.414547	5e-06
26	C	0.712021	0.342399	6e-06
27	C	0.752322	0.350609	5e-06
28	N	0.785549	0.393989	0
29	C	0.676224	0.298516	4e-06
30	O	0.684655	0.269096	7e-06
31	C	0.631726	0.288692	0.999999
32	C	0.600173	0.248659	0.999998
33	N	0.606612	0.213121	0
34	H	0.677044	0.432916	1e-06
35	H	0.760882	0.326241	8e-06
36	H	0.56818	0.242942	0.999997
37	C	0.582564	0.419	0
38	C	0.562372	0.438807	0.082553
39	C	0.545341	0.455518	0.942093
40	C	0.521858	0.478555	0.97266
41	C	0.51264	0.487598	0.153995
42	N	0.490881	0.508945	0.185269
43	C	0.478141	0.521444	0.027342
44	C	0.454659	0.544482	0.057908
45	C	0.445928	0.553048	0.240509
46	S	0.418159	0.580292	0.241355
47	C	0.417436	0.581	0
48	C	0.437626	0.561191	0.917447
49	C	0.487358	0.512401	0.846007
50	N	0.509118	0.491054	0.814733
51	C	0.554072	0.446952	0.759492
52	S	0.581842	0.419709	0.758645
53	H	0.559998	0.441136	0.235796
54	H	0.522349	0.478073	0.283032
55	H	0.454548	0.544591	0.375256
56	H	0.440001	0.558862	0.764204
57	H	0.47765	0.521926	0.716971
58	H	0.545452	0.45541	0.624745
59	C	0.580336	0.161781	0
60	C	0.560582	0.122165	0.082553
61	C	0.543916	0.088745	0.942093
62	C	0.520941	0.04267	0.97266
63	C	0.511922	0.024584	0.153995
64	N	0.490632	0.981889	0.185269
65	C	0.478166	0.956891	0.027342
66	C	0.45519	0.910816	0.057908
67	C	0.446647	0.893684	0.240509
68	S	0.419476	0.839196	0.241355
69	C	0.41877	0.83778	0
70	C	0.438526	0.877396	0.917447
71	C	0.487185	0.974977	0.846007
72	N	0.508475	0.017672	0.814733
73	C	0.552458	0.105877	0.759492
74	S	0.579628	0.160365	0.758645
75	H	0.558259	0.117507	0.235796
76	H	0.521421	0.043633	0.283032
77	H	0.455082	0.910599	0.375256
78	H	0.440849	0.882055	0.764204
79	H	0.477686	0.955927	0.716971
80	H	0.544023	0.088962	0.624745
81	C	0.836434	0.41856	0
82	C	0.87638	0.438369	0.082553
83	C	0.910077	0.455078	0.942093
84	C	0.956535	0.478116	0.97266
85	C	0.974772	0.487159	0.153995
86	N	0.017821	0.508507	0.185269
87	C	0.043027	0.521006	0.027342
88	C	0.089485	0.544043	0.057908
89	C	0.106759	0.552608	0.240509
90	S	0.161699	0.579852	0.241355
91	C	0.163127	0.580561	0
92	C	0.123182	0.560754	0.917447
93	C	0.02479	0.511963	0.846007
94	N	0.981741	0.490615	0.814733
95	C	0.892803	0.446512	0.759492
96	S	0.837863	0.419267	0.758645
97	H	0.881077	0.440698	0.235796
98	H	0.955564	0.477634	0.283032
99	H	0.089704	0.544151	0.375256
100	H	0.118484	0.558424	0.764204
101	H	0.043998	0.521487	0.716971
102	H	0.909858	0.454968	0.624745
