data_C132H72N12O6S12_2023-05-11_09:09:54
#******************************************
#
# CIF file created by Zeo++
# Zeo++ is an open source package to
# analyze microporous materials
#
#*******************************************

_cell_length_a		51.6665   
_cell_length_b		51.965   
_cell_length_c		7   
_cell_angle_alpha		90   
_cell_angle_beta		90   
_cell_angle_gamma		119.749   

_symmetry_space_group_name_H-M		'P1'
_symmetry_Int_Tables_number		1
_symmetry_cell_setting		Monoclinic

loop_
_symmetry_equiv_pos_as_xyz
'+x,+y,+z'

loop_
_atom_site_label
_atom_site_type_symbol
_atom_site_fract_x
_atom_site_fract_y
_atom_site_fract_z
1	C	0.363332	0.672939	0.999995
2	O	0.389633	0.677551	0.999991
3	C	0.339558	0.642118	0.999998
4	C	0.344176	0.6194	0
5	N	0.373616	0.624713	0
6	C	0.309142	0.636648	3e-06
7	O	0.287776	0.610083	5e-06
8	C	0.301835	0.66035	6e-06
9	C	0.273845	0.65463	5e-06
10	N	0.250711	0.624406	0
11	C	0.326753	0.690925	4e-06
12	O	0.320945	0.711422	7e-06
13	C	0.357658	0.697769	0.999999
14	C	0.379624	0.725661	0.999998
15	N	0.375209	0.750421	0
16	H	0.325976	0.597285	1e-06
17	H	0.26794	0.671608	8e-06
18	H	0.401843	0.729644	0.999997
19	C	0.636668	0.327061	0.999995
20	O	0.610367	0.322449	0.999991
21	C	0.660442	0.357882	0.999998
22	C	0.655824	0.3806	0
23	N	0.626384	0.375287	0
24	C	0.690858	0.363352	3e-06
25	O	0.712224	0.389917	5e-06
26	C	0.698165	0.33965	6e-06
27	C	0.726155	0.34537	5e-06
28	N	0.749289	0.375594	0
29	C	0.673247	0.309075	4e-06
30	O	0.679055	0.288578	7e-06
31	C	0.642342	0.302231	0.999999
32	C	0.620376	0.274339	0.999998
33	N	0.624791	0.249579	0
34	H	0.674024	0.402715	1e-06
35	H	0.73206	0.328392	8e-06
36	H	0.598157	0.270356	0.999997
37	C	0.608414	0.393019	0
38	C	0.586394	0.398798	0.057207
39	C	0.578351	0.390944	0.253444
40	C	0.5562	0.394336	0.355433
41	C	0.542968	0.381361	0.521417
42	C	0.520978	0.390772	0.581475
43	C	0.523484	0.41102	0.421071
44	C	0.505737	0.425771	0.403233
45	C	0.487771	0.41954	0.243576
46	N	0.470654	0.43179	0.205118
47	C	0.470509	0.452046	0.325434
48	C	0.452974	0.465122	0.280714
49	N	0.436168	0.456728	0.120413
50	C	0.41915	0.468885	0.076046
51	C	0.417329	0.490261	0.18361
52	C	0.397331	0.500944	0.119361
53	C	0.404013	0.529137	0.090179
54	C	0.377864	0.530241	0.025652
55	C	0.377065	0.556917	0.988491
56	C	0.35551	0.558164	0.878033
57	S	0.360809	0.593372	0.860647
58	C	0.391586	0.606981	0
59	C	0.398153	0.58572	0.05973
60	C	0.355259	0.502159	0.010413
61	C	0.365244	0.480586	0.067268
62	C	0.434836	0.499641	0.350526
63	C	0.43356	0.521717	0.476918
64	C	0.41159	0.517679	0.605693
65	C	0.418124	0.544413	0.701875
66	C	0.444834	0.56799	0.64334
67	S	0.461935	0.557923	0.473571
68	C	0.452803	0.486775	0.402094
69	C	0.470204	0.494453	0.569058
70	C	0.487485	0.481599	0.612985
71	C	0.487966	0.460074	0.493609
72	C	0.505476	0.446245	0.533271
73	C	0.524285	0.454512	0.705706
74	C	0.554735	0.473049	0.720918
75	C	0.564982	0.475735	0.912833
76	C	0.542063	0.459174	0.037807
77	S	0.508392	0.440415	0.924153
78	C	0.543845	0.412753	0.294395
79	C	0.595036	0.379549	0.333631
80	S	0.619796	0.37847	0.175147
81	H	0.576433	0.408007	0.963081
82	H	0.547014	0.366143	0.603776
83	H	0.52764	0.401932	0.719456
84	H	0.498483	0.371623	0.591422
85	H	0.486339	0.403739	0.136262
86	H	0.406756	0.460515	0.943621
87	H	0.425652	0.54856	0.108663
88	H	0.336838	0.540282	0.804555
89	H	0.416963	0.590458	0.150715
90	H	0.332713	0.495378	0.967053
91	H	0.352396	0.467282	0.189765
92	H	0.362783	0.466035	0.947293
93	H	0.391663	0.496506	0.629494
94	H	0.403885	0.546219	0.80822
95	H	0.455193	0.590722	0.692083
96	H	0.470675	0.51073	0.668897
97	H	0.500733	0.488941	0.743065
98	H	0.569012	0.484136	0.599672
99	H	0.588013	0.489137	0.956988
100	H	0.543452	0.457122	0.190725
101	H	0.550276	0.425753	0.164787
102	H	0.594286	0.371856	0.478115
103	C	0.606472	0.213809	0
104	C	0.600785	0.186221	0.057207
105	C	0.608705	0.186058	0.253444
106	C	0.605414	0.160715	0.355433
107	C	0.618498	0.160502	0.521417
108	C	0.609167	0.129328	0.581475
109	C	0.58884	0.111668	0.421071
110	C	0.574131	0.079391	0.403233
111	C	0.580473	0.067773	0.243576
112	N	0.56827	0.038609	0.205118
113	C	0.547949	0.018311	0.325434
114	C	0.534918	0.98791	0.280714
115	N	0.543425	0.979595	0.120413
116	C	0.531314	0.950622	0.076046
117	C	0.509878	0.927547	0.18361
118	C	0.499261	0.897085	0.119361
119	C	0.470943	0.875661	0.090179
120	C	0.469967	0.848629	0.025652
121	C	0.443209	0.821296	0.988491
122	C	0.442065	0.798676	0.878033
123	S	0.406716	0.768902	0.860647
124	C	0.392908	0.785885	0
125	C	0.414205	0.813552	0.05973
126	C	0.498254	0.854151	0.010413
127	C	0.519847	0.885518	0.067268
128	C	0.500379	0.935577	0.350526
129	C	0.478237	0.912347	0.476918
130	C	0.4824	0.894577	0.605693
131	C	0.455545	0.874456	0.701875
132	C	0.431757	0.877488	0.64334
133	S	0.44177	0.904465	0.473571
134	C	0.513196	0.966197	0.402094
135	C	0.505405	0.975815	0.569058
136	C	0.518214	0.005743	0.612985
137	C	0.539806	0.027636	0.493609
138	C	0.553592	0.058763	0.533271
139	C	0.545204	0.06919	0.705706
140	C	0.526453	0.080946	0.720918
141	C	0.523706	0.088436	0.912833
142	C	0.540436	0.082183	0.037807
143	S	0.559426	0.067454	0.924153
144	C	0.586999	0.130137	0.294395
145	C	0.620053	0.213943	0.333631
146	S	0.621011	0.239573	0.175147
147	H	0.591596	0.167179	0.963081
148	H	0.633745	0.179655	0.603776
149	H	0.597937	0.124832	0.719456
150	H	0.628492	0.126072	0.591422
151	H	0.596333	0.082074	0.136262
152	H	0.539774	0.946658	0.943621
153	H	0.451347	0.877797	0.108663
154	H	0.4601	0.79795	0.804555
155	H	0.409357	0.827493	0.150715
156	H	0.505171	0.838538	0.967053
157	H	0.533259	0.886013	0.189765
158	H	0.534458	0.897555	0.947293
159	H	0.503742	0.895879	0.629494
160	H	0.453806	0.858538	0.80822
161	H	0.408899	0.865145	0.692083
162	H	0.489074	0.960088	0.668897
163	H	0.510781	0.011578	0.743065
164	H	0.515258	0.084075	0.599672
165	H	0.510145	0.097943	0.956988
166	H	0.542488	0.085603	0.190725
167	H	0.573925	0.123581	0.164787
168	H	0.627775	0.220854	0.478115
169	C	0.784651	0.392713	0
170	C	0.812358	0.414522	0.057207
171	C	0.812481	0.422538	0.253444
172	C	0.837923	0.444489	0.355433
173	C	0.838071	0.457678	0.521417
174	C	0.869393	0.47944	0.581475
175	C	0.887213	0.476852	0.421071
176	C	0.919669	0.494379	0.403233
177	C	0.931293	0.512228	0.243576
178	N	0.960613	0.529141	0.205118
179	C	0.98108	0.529184	0.325434
180	C	0.011645	0.546508	0.280714
181	N	0.019945	0.563218	0.120413
182	C	0.049073	0.580034	0.076046
183	C	0.072331	0.581733	0.18361
184	C	0.102946	0.601512	0.119361
185	C	0.124582	0.594743	0.090179
186	C	0.151707	0.62067	0.025652
187	C	0.179264	0.621328	0.988491
188	C	0.201962	0.6427	0.878033
189	S	0.232012	0.637267	0.860647
190	C	0.215043	0.606675	0
191	C	0.187179	0.600269	0.05973
192	C	0.146024	0.643231	0.010413
193	C	0.114446	0.633437	0.067268
194	C	0.064322	0.564322	0.350526
195	C	0.08774	0.565476	0.476918
196	C	0.105547	0.587285	0.605693
197	C	0.125868	0.580671	0.701875
198	C	0.122946	0.554062	0.64334
199	S	0.095831	0.537153	0.473571
200	C	0.033538	0.546569	0.402094
201	C	0.023928	0.529272	0.569058
202	C	0.993838	0.512198	0.612985
203	C	0.971765	0.51183	0.493609
204	C	0.940468	0.494533	0.533271
205	C	0.930049	0.475838	0.705706
206	C	0.918349	0.445546	0.720918
207	C	0.910849	0.435369	0.912833
208	C	0.917038	0.458183	0.037807
209	S	0.931719	0.491671	0.924153
210	C	0.868693	0.45665	0.294395
211	C	0.784449	0.406049	0.333631
212	S	0.75873	0.381497	0.175147
213	H	0.831507	0.424354	0.963081
214	H	0.818779	0.453743	0.603776
215	H	0.87396	0.472776	0.719456
216	H	0.872562	0.501845	0.591422
217	H	0.916865	0.513727	0.136262
218	H	0.053007	0.592368	0.943621
219	H	0.122538	0.573184	0.108663
220	H	0.202599	0.661308	0.804555
221	H	0.173217	0.58159	0.150715
222	H	0.161653	0.665625	0.967053
223	H	0.113882	0.646246	0.189765
224	H	0.102296	0.635951	0.947293
225	H	0.104133	0.607156	0.629494
226	H	0.141847	0.594784	0.80822
227	H	0.135445	0.543674	0.692083
228	H	0.039789	0.528723	0.668897
229	H	0.988022	0.499022	0.743065
230	H	0.915267	0.43133	0.599672
231	H	0.901379	0.412461	0.956988
232	H	0.913597	0.456816	0.190725
233	H	0.875336	0.450206	0.164787
234	H	0.777476	0.406831	0.478115
