data_C90H42N6O6S18_2023-05-13_05:36:41
#******************************************
#
# CIF file created by Zeo++
# Zeo++ is an open source package to
# analyze microporous materials
#
#*******************************************

_cell_length_a		47.9114   
_cell_length_b		48.2099   
_cell_length_c		7   
_cell_angle_alpha		90   
_cell_angle_beta		90   
_cell_angle_gamma		119.73   

_symmetry_space_group_name_H-M		'P1'
_symmetry_Int_Tables_number		1
_symmetry_cell_setting		Monoclinic

loop_
_symmetry_equiv_pos_as_xyz
'+x,+y,+z'

loop_
_atom_site_label
_atom_site_type_symbol
_atom_site_fract_x
_atom_site_fract_y
_atom_site_fract_z
1	C	0.365681	0.673426	0.999995
2	O	0.394041	0.678396	0.999991
3	C	0.340057	0.640211	0.999998
4	C	0.345046	0.615729	0
5	N	0.376791	0.621454	0
6	C	0.307259	0.634316	3e-06
7	O	0.28423	0.605688	5e-06
8	C	0.299369	0.65986	6e-06
9	C	0.269187	0.653695	5e-06
10	N	0.244254	0.621124	0
11	C	0.326226	0.692809	4e-06
12	O	0.319955	0.714899	7e-06
13	C	0.359551	0.700185	0.999999
14	C	0.383227	0.730244	0.999998
15	N	0.378456	0.756927	0
16	H	0.325429	0.591895	1e-06
17	H	0.262812	0.671992	8e-06
18	H	0.407186	0.734536	0.999997
19	C	0.634319	0.326574	0.999995
20	O	0.605959	0.321604	0.999991
21	C	0.659943	0.359789	0.999998
22	C	0.654954	0.384271	0
23	N	0.623209	0.378546	0
24	C	0.692741	0.365684	3e-06
25	O	0.71577	0.394312	5e-06
26	C	0.700631	0.34014	6e-06
27	C	0.730813	0.346305	5e-06
28	N	0.755746	0.378876	0
29	C	0.673774	0.307191	4e-06
30	O	0.680045	0.285101	7e-06
31	C	0.640449	0.299815	0.999999
32	C	0.616773	0.269756	0.999998
33	N	0.621544	0.243073	0
34	H	0.674571	0.408105	1e-06
35	H	0.737188	0.328008	8e-06
36	H	0.592814	0.265464	0.999997
37	C	0.396177	0.602345	0
38	C	0.384461	0.613899	0.138389
39	C	0.391519	0.606943	0.324715
40	C	0.408339	0.59036	0.321769
41	C	0.419067	0.579786	0.486184
42	C	0.41452	0.584273	0.676318
43	C	0.428001	0.570984	0.804034
44	C	0.442769	0.556421	0.710735
45	C	0.458698	0.540717	0.798852
46	C	0.462053	0.537409	0.992421
47	C	0.479	0.520702	0.033022
48	C	0.488497	0.511341	0.870245
49	C	0.506079	0.494008	0.862413
50	C	0.51659	0.483645	0.01627
51	C	0.533229	0.467242	0.9607
52	C	0.535335	0.465166	0.764702
53	C	0.550653	0.450066	0.662644
54	C	0.565979	0.434954	0.742487
55	C	0.57861	0.422504	0.603163
56	C	0.572846	0.428189	0.417739
57	C	0.582072	0.419096	0.241337
58	C	0.576283	0.424807	0.055157
59	C	0.58888	0.41239	0.915207
60	C	0.603823	0.397655	0
61	S	0.602974	0.398489	0.241192
62	S	0.552052	0.448691	0.41797
63	S	0.516842	0.483398	0.652644
64	S	0.476422	0.523245	0.670658
65	S	0.439797	0.559345	0.468072
66	S	0.415199	0.583592	0.089021
67	H	0.371566	0.626612	0.109928
68	H	0.3844	0.613965	0.454645
69	H	0.402055	0.596565	0.724449
70	H	0.426705	0.572266	0.957949
71	H	0.452846	0.546485	0.102592
72	H	0.483832	0.515938	0.176818
73	H	0.512695	0.487485	0.163965
74	H	0.543118	0.457493	0.062337
75	H	0.568271	0.432692	0.894781
76	H	0.591355	0.409937	0.640117
77	H	0.563523	0.437388	0.018694
78	H	0.586888	0.414356	0.762299
79	C	0.397527	0.795146	0
80	C	0.385996	0.772043	0.138389
81	C	0.392937	0.785955	0.324715
82	C	0.409487	0.81912	0.321769
83	C	0.42004	0.840268	0.486184
84	C	0.415562	0.831299	0.676318
85	C	0.428825	0.857878	0.804034
86	C	0.443358	0.886999	0.710735
87	C	0.45903	0.918404	0.798852
88	C	0.462332	0.92502	0.992421
89	C	0.479005	0.958432	0.033022
90	C	0.488348	0.977155	0.870245
91	C	0.505646	0.01182	0.862413
92	C	0.515988	0.032545	0.01627
93	C	0.532358	0.065349	0.9607
94	C	0.534429	0.069501	0.764702
95	C	0.549499	0.099701	0.662644
96	C	0.564581	0.129921	0.742487
97	C	0.577006	0.154822	0.603163
98	C	0.571332	0.143455	0.417739
99	C	0.580407	0.161642	0.241337
100	C	0.574708	0.150225	0.055157
101	C	0.5871	0.17506	0.915207
102	C	0.601805	0.204524	0
103	S	0.600973	0.202854	0.241192
104	S	0.550872	0.102455	0.41797
105	S	0.516234	0.033039	0.652644
106	S	0.476467	0.953347	0.670658
107	S	0.440439	0.881144	0.468072
108	S	0.416242	0.832649	0.089021
109	H	0.373308	0.746618	0.109928
110	H	0.38593	0.771916	0.454645
111	H	0.403295	0.80672	0.724449
112	H	0.427545	0.855318	0.957949
113	H	0.453274	0.906868	0.102592
114	H	0.48376	0.967959	0.176818
115	H	0.512155	0.024864	0.163965
116	H	0.542087	0.084846	0.062337
117	H	0.566839	0.134443	0.894781
118	H	0.589548	0.179952	0.640117
119	H	0.562152	0.125065	0.018694
120	H	0.585138	0.17113	0.762299
121	C	0.205797	0.602014	0
122	C	0.229044	0.613564	0.138389
123	C	0.215045	0.606606	0.324715
124	C	0.181674	0.590026	0.321769
125	C	0.160394	0.579451	0.486184
126	C	0.169419	0.583933	0.676318
127	C	0.142675	0.570643	0.804034
128	C	0.113373	0.556085	0.710735
129	C	0.081773	0.540384	0.798852
130	C	0.075115	0.537076	0.992421
131	C	0.041495	0.520371	0.033022
132	C	0.022656	0.511009	0.870245
133	C	0.987776	0.493678	0.862413
134	C	0.966922	0.483316	0.01627
135	C	0.933914	0.466914	0.9607
136	C	0.929736	0.464838	0.764702
137	C	0.899348	0.449738	0.662644
138	C	0.868941	0.43463	0.742487
139	C	0.843885	0.422179	0.603163
140	C	0.855322	0.427861	0.417739
141	C	0.837022	0.418767	0.241337
142	C	0.84851	0.424473	0.055157
143	C	0.823521	0.412056	0.915207
144	C	0.793873	0.397325	0
145	S	0.795554	0.398162	0.241192
146	S	0.896577	0.448359	0.41797
147	S	0.966425	0.483068	0.652644
148	S	0.046613	0.522912	0.670658
149	S	0.119264	0.559015	0.468072
150	S	0.168061	0.583264	0.089021
151	H	0.254627	0.626275	0.109928
152	H	0.229172	0.613624	0.454645
153	H	0.194152	0.59622	0.724449
154	H	0.145251	0.571921	0.957949
155	H	0.09338	0.546152	0.102592
156	H	0.031909	0.515608	0.176818
157	H	0.974651	0.487156	0.163965
158	H	0.914296	0.457166	0.062337
159	H	0.864391	0.432371	0.894781
160	H	0.818598	0.409615	0.640117
161	H	0.873826	0.437052	0.018694
162	H	0.827475	0.414019	0.762299
