data_C102H48N6O6S21_2023-05-15_01:31:06
#******************************************
#
# CIF file created by Zeo++
# Zeo++ is an open source package to
# analyze microporous materials
#
#*******************************************

_cell_length_a		55.7985   
_cell_length_b		56.0969   
_cell_length_c		7   
_cell_angle_alpha		90   
_cell_angle_beta		90   
_cell_angle_gamma		119.768   

_symmetry_space_group_name_H-M		'P1'
_symmetry_Int_Tables_number		1
_symmetry_cell_setting		Monoclinic

loop_
_symmetry_equiv_pos_as_xyz
'+x,+y,+z'

loop_
_atom_site_label
_atom_site_type_symbol
_atom_site_fract_x
_atom_site_fract_y
_atom_site_fract_z
1	C	0.361113	0.672478	0.999995
2	O	0.385468	0.676751	0.999991
3	C	0.339089	0.643922	0.999998
4	C	0.343357	0.622874	0
5	N	0.370619	0.627796	0
6	C	0.310923	0.638853	3e-06
7	O	0.29113	0.614241	5e-06
8	C	0.304165	0.660815	6e-06
9	C	0.278246	0.655515	5e-06
10	N	0.256815	0.627512	0
11	C	0.327248	0.689142	4e-06
12	O	0.321878	0.708133	7e-06
13	C	0.355868	0.695483	0.999999
14	C	0.376217	0.721326	0.999998
15	N	0.372137	0.744266	0
16	H	0.326497	0.602384	1e-06
17	H	0.272784	0.671245	8e-06
18	H	0.396792	0.725016	0.999997
19	C	0.638887	0.327522	0.999995
20	O	0.614532	0.323249	0.999991
21	C	0.660911	0.356078	0.999998
22	C	0.656643	0.377126	0
23	N	0.629381	0.372204	0
24	C	0.689077	0.361147	3e-06
25	O	0.70887	0.385759	5e-06
26	C	0.695835	0.339185	6e-06
27	C	0.721754	0.344485	5e-06
28	N	0.743185	0.372488	0
29	C	0.672752	0.310858	4e-06
30	O	0.678122	0.291867	7e-06
31	C	0.644132	0.304517	0.999999
32	C	0.623783	0.278674	0.999998
33	N	0.627863	0.255734	0
34	H	0.673503	0.397616	1e-06
35	H	0.727216	0.328755	8e-06
36	H	0.603208	0.274984	0.999997
37	C	0.387252	0.611367	0
38	C	0.404948	0.603628	0.923759
39	C	0.414505	0.59217	0.066823
40	C	0.403755	0.591585	0.246709
41	C	0.408889	0.581488	0.42401
42	C	0.397249	0.579794	0.601455
43	C	0.407191	0.568757	0.744675
44	C	0.426283	0.562047	0.675331
45	C	0.440358	0.550646	0.783785
46	C	0.443052	0.550895	0.980514
47	C	0.457934	0.537735	0.043797
48	C	0.466206	0.527664	0.893719
49	C	0.483006	0.512029	0.914433
50	C	0.491167	0.506798	0.08737
51	S	0.508972	0.489512	0.062053
52	C	0.506181	0.488636	0.817075
53	C	0.517663	0.475958	0.694142
54	C	0.515807	0.473947	0.497181
55	C	0.529352	0.460302	0.418168
56	C	0.541469	0.451968	0.555327
57	C	0.556869	0.437659	0.527764
58	C	0.568299	0.428614	0.665349
59	C	0.582134	0.415264	0.586298
60	C	0.581234	0.41431	0.389003
61	C	0.593081	0.402076	0.266013
62	C	0.600567	0.382811	0.318411
63	C	0.611933	0.374963	0.164113
64	C	0.612748	0.388633	0
65	S	0.600263	0.410384	0.027979
66	S	0.563306	0.429582	0.303951
67	S	0.535993	0.46103	0.778526
68	C	0.491688	0.501544	0.759379
69	S	0.45601	0.534154	0.679648
70	S	0.431821	0.569513	0.43632
71	S	0.382008	0.605174	0.236897
72	H	0.410893	0.605903	0.774721
73	H	0.428692	0.58471	0.036934
74	H	0.38212	0.586098	0.62993
75	H	0.400292	0.565818	0.89181
76	H	0.434895	0.560239	0.076827
77	H	0.462136	0.535998	0.192556
78	H	0.487713	0.512137	0.229003
79	H	0.505212	0.481847	0.410675
80	H	0.529972	0.456906	0.266316
81	H	0.566985	0.43132	0.817511
82	H	0.592399	0.406967	0.672435
83	H	0.597911	0.374423	0.461219
84	H	0.618972	0.360167	0.174978
85	H	0.487437	0.503457	0.610993
86	C	0.388538	0.777124	0
87	C	0.396218	0.802389	0.923759
88	C	0.407666	0.823277	0.066823
89	C	0.408302	0.813191	0.246709
90	C	0.418406	0.828336	0.42401
91	C	0.420159	0.818471	0.601455
92	C	0.431183	0.839322	0.744675
93	C	0.437824	0.864947	0.675331
94	C	0.449193	0.890262	0.783785
95	C	0.448931	0.892688	0.980514
96	C	0.462062	0.920555	0.043797
97	C	0.472123	0.938787	0.893719
98	C	0.487728	0.971022	0.914433
99	C	0.492936	0.984326	0.08737
100	S	0.510191	0.0192	0.062053
101	C	0.511082	0.017303	0.817075
102	C	0.523745	0.041316	0.694142
103	C	0.52577	0.041475	0.497181
104	C	0.539393	0.068499	0.418168
105	C	0.547695	0.088818	0.555327
106	C	0.561976	0.118343	0.527764
107	C	0.570994	0.138688	0.665349
108	C	0.58432	0.165704	0.586298
109	C	0.585281	0.165761	0.389003
110	C	0.597496	0.189695	0.266013
111	C	0.616785	0.216299	0.318411
112	C	0.624603	0.235389	0.164113
113	C	0.610888	0.222592	0
114	S	0.58913	0.188553	0.027979
115	S	0.570047	0.132769	0.303951
116	S	0.538632	0.074364	0.778526
117	C	0.498204	0.990073	0.759379
118	S	0.465662	0.922209	0.679648
119	S	0.430309	0.863011	0.43632
120	S	0.394774	0.778085	0.236897
121	H	0.393907	0.806023	0.774721
122	H	0.415081	0.84478	0.036934
123	H	0.413907	0.797183	0.62993
124	H	0.434163	0.835402	0.89181
125	H	0.439597	0.875293	0.076827
126	H	0.463784	0.926454	0.192556
127	H	0.487597	0.975585	0.229003
128	H	0.517896	0.023098	0.410675
129	H	0.542797	0.072494	0.266316
130	H	0.568286	0.134691	0.817511
131	H	0.592595	0.18415	0.672435
132	H	0.62521	0.222012	0.461219
133	H	0.639411	0.257101	0.174978
134	H	0.496304	0.98395	0.610993
135	C	0.223782	0.611083	0
136	C	0.198405	0.593558	0.923759
137	C	0.177401	0.584128	0.066823
138	C	0.187514	0.594798	0.246709
139	C	0.172276	0.589751	0.42401
140	C	0.182163	0.60131	0.601455
141	C	0.161198	0.591495	0.744675
142	C	0.135465	0.57258	0.675331
143	C	0.11002	0.558666	0.783785
144	C	0.107588	0.555991	0.980514
145	C	0.079576	0.541284	0.043797
146	C	0.061242	0.533123	0.893719
147	C	0.028838	0.516524	0.914433
148	C	0.015469	0.50845	0.08737
149	S	0.980409	0.490862	0.062053
150	C	0.982308	0.493635	0.817075
151	C	0.958163	0.4823	0.694142
152	C	0.957994	0.484152	0.497181
153	C	0.930826	0.470774	0.418168
154	C	0.910407	0.458788	0.555327
155	C	0.880727	0.443573	0.527764
156	C	0.860278	0.432272	0.665349
157	C	0.833118	0.418606	0.586298
158	C	0.833057	0.419503	0.389003
159	C	0.808994	0.407803	0.266013
160	C	0.782219	0.400464	0.318411
161	C	0.763036	0.389222	0.164113
162	C	0.775935	0.388349	0
163	S	0.810178	0.400637	0.027979
164	S	0.866219	0.437223	0.303951
165	S	0.924947	0.46418	0.778526
166	C	0.00968	0.507958	0.759379
167	S	0.0779	0.543211	0.679648
168	S	0.137442	0.56705	0.43632
169	S	0.222789	0.616315	0.236897
170	H	0.194771	0.587647	0.774721
171	H	0.155798	0.570084	0.036934
172	H	0.203544	0.616293	0.62993
173	H	0.165116	0.598355	0.89181
174	H	0.125079	0.564042	0.076827
175	H	0.073652	0.537123	0.192556
176	H	0.024261	0.511853	0.229003
177	H	0.976463	0.494628	0.410675
178	H	0.926803	0.470175	0.266316
179	H	0.8643	0.433563	0.817511
180	H	0.814578	0.408457	0.672435
181	H	0.77645	0.40314	0.461219
182	H	0.741189	0.382306	0.174978
183	H	0.01583	0.512167	0.610993
