data_C60H39N9O6_2023-05-11_00:08:54
#******************************************
#
# CIF file created by Zeo++
# Zeo++ is an open source package to
# analyze microporous materials
#
#*******************************************

_cell_length_a		34.6887   
_cell_length_b		34.9874   
_cell_length_c		7   
_cell_angle_alpha		90   
_cell_angle_beta		90   
_cell_angle_gamma		119.627   

_symmetry_space_group_name_H-M		'P1'
_symmetry_Int_Tables_number		1
_symmetry_cell_setting		Monoclinic

loop_
_symmetry_equiv_pos_as_xyz
'+x,+y,+z'

loop_
_atom_site_label
_atom_site_type_symbol
_atom_site_fract_x
_atom_site_fract_y
_atom_site_fract_z
1	C	0.377991	0.675971	0.999995
2	O	0.417148	0.682813	0.999991
3	C	0.342695	0.63025	0.999998
4	C	0.349655	0.59655	0
5	N	0.393486	0.60443	0
6	C	0.297412	0.622135	3e-06
7	O	0.265686	0.582728	5e-06
8	C	0.286441	0.657297	6e-06
9	C	0.244773	0.648812	5e-06
10	N	0.210428	0.603976	0
11	C	0.323442	0.702652	4e-06
12	O	0.314717	0.733059	7e-06
13	C	0.369449	0.712805	0.999999
14	C	0.402064	0.754182	0.999998
15	N	0.395397	0.790912	0
16	H	0.322629	0.563742	1e-06
17	H	0.235916	0.673997	8e-06
18	H	0.435143	0.760091	0.999997
19	C	0.622009	0.324029	0.999995
20	O	0.582852	0.317187	0.999991
21	C	0.657305	0.36975	0.999998
22	C	0.650345	0.40345	0
23	N	0.606514	0.39557	0
24	C	0.702588	0.377865	3e-06
25	O	0.734314	0.417272	5e-06
26	C	0.713559	0.342703	6e-06
27	C	0.755227	0.351188	5e-06
28	N	0.789572	0.396024	0
29	C	0.676558	0.297348	4e-06
30	O	0.685283	0.266941	7e-06
31	C	0.630551	0.287195	0.999999
32	C	0.597936	0.245818	0.999998
33	N	0.604603	0.209088	0
34	H	0.677371	0.436258	1e-06
35	H	0.764084	0.326003	8e-06
36	H	0.564857	0.239909	0.999997
37	C	0.420315	0.578126	0
38	C	0.429011	0.569679	0.823611
39	C	0.45317	0.546038	0.836779
40	C	0.459352	0.539927	0.021309
41	C	0.48116	0.518561	0.10235
42	C	0.486108	0.513665	0.294479
43	N	0.509029	0.491215	0.314254
44	C	0.519135	0.481388	0.137523
45	C	0.542811	0.458192	0.11629
46	C	0.557804	0.444014	0.262376
47	C	0.580445	0.421704	0.190866
48	C	0.579685	0.421874	0
49	C	0.555788	0.444984	0.93021
50	C	0.502015	0.498168	0.003967
51	C	0.438696	0.560093	0.146696
52	H	0.419804	0.578731	0.690984
53	H	0.46416	0.535327	0.714086
54	H	0.475513	0.523997	0.42007
55	H	0.517064	0.48327	0.44111
56	H	0.554535	0.447707	0.413541
57	H	0.595375	0.407407	0.280084
58	H	0.526297	0.422943	0.847109
59	H	0.577567	0.474051	0.84519
60	H	0.504413	0.495856	0.850668
61	H	0.463579	0.586439	0.236161
62	H	0.412199	0.535268	0.235946
63	C	0.421629	0.843521	0
64	C	0.430052	0.860495	0.823611
65	C	0.453626	0.907822	0.836779
66	C	0.459721	0.919994	0.021309
67	C	0.481027	0.962741	0.10235
68	C	0.485911	0.972489	0.294479
69	N	0.508298	0.017412	0.314254
70	C	0.518097	0.037147	0.137523
71	C	0.541228	0.083556	0.11629
72	C	0.555362	0.112438	0.262376
73	C	0.577612	0.156945	0.190866
74	C	0.577446	0.156025	0
75	C	0.554403	0.109483	0.93021
76	C	0.501363	0.003581	0.003967
77	C	0.439611	0.879576	0.146696
78	H	0.421025	0.842416	0.690984
79	H	0.464307	0.929309	0.714086
80	H	0.475608	0.951769	0.42007
81	H	0.516221	0.033233	0.44111
82	H	0.551676	0.105543	0.413541
83	H	0.591866	0.185883	0.280084
84	H	0.576772	0.102229	0.847109
85	H	0.525031	0.102147	0.84519
86	H	0.503669	0.008245	0.850668
87	H	0.412951	0.878005	0.236161
88	H	0.464756	0.878042	0.235946
89	C	0.157367	0.577671	0
90	C	0.140248	0.569145	0.823611
91	C	0.092515	0.545459	0.836779
92	C	0.080238	0.539398	0.021309
93	C	0.037124	0.518017	0.10235
94	C	0.027292	0.513165	0.294479
95	N	0.981984	0.490692	0.314254
96	C	0.962079	0.480783	0.137523
97	C	0.915272	0.457571	0.11629
98	C	0.886144	0.442867	0.262376
99	C	0.841254	0.42067	0.190866
100	C	0.84218	0.421419	0
101	C	0.88912	0.444852	0.93021
102	C	0.995933	0.497569	0.003967
103	C	0.121003	0.55965	0.146696
104	H	0.158483	0.578172	0.690984
105	H	0.070844	0.534683	0.714086
106	H	0.04819	0.523553	0.42007
107	H	0.966027	0.482816	0.44111
108	H	0.8931	0.446069	0.413541
109	H	0.812069	0.406029	0.280084
110	H	0.896242	0.474147	0.847109
111	H	0.896712	0.42312	0.84519
112	H	0.991229	0.495217	0.850668
113	H	0.122781	0.534874	0.236161
114	H	0.122357	0.586009	0.235946
