data_C105H51N9O6S18_2023-05-12_08:20:27
#******************************************
#
# CIF file created by Zeo++
# Zeo++ is an open source package to
# analyze microporous materials
#
#*******************************************

_cell_length_a		59.28   
_cell_length_b		59.5784   
_cell_length_c		7   
_cell_angle_alpha		90   
_cell_angle_beta		90   
_cell_angle_gamma		119.781   

_symmetry_space_group_name_H-M		'P1'
_symmetry_Int_Tables_number		1
_symmetry_cell_setting		Monoclinic

loop_
_symmetry_equiv_pos_as_xyz
'+x,+y,+z'

loop_
_atom_site_label
_atom_site_type_symbol
_atom_site_fract_x
_atom_site_fract_y
_atom_site_fract_z
1	C	0.359483	0.672139	0.999995
2	O	0.382408	0.676163	0.999991
3	C	0.338745	0.645248	0.999998
4	C	0.342757	0.625427	0
5	N	0.368419	0.630062	0
6	C	0.312232	0.640475	3e-06
7	O	0.293595	0.617298	5e-06
8	C	0.305877	0.661156	6e-06
9	C	0.281478	0.656165	5e-06
10	N	0.261299	0.629795	0
11	C	0.327612	0.687832	4e-06
12	O	0.322562	0.705715	7e-06
13	C	0.354552	0.693803	0.999999
14	C	0.373713	0.718139	0.999998
15	N	0.369878	0.739742	0
16	H	0.326882	0.606132	1e-06
17	H	0.276341	0.670978	8e-06
18	H	0.39308	0.721614	0.999997
19	C	0.640517	0.327861	0.999995
20	O	0.617592	0.323837	0.999991
21	C	0.661255	0.354752	0.999998
22	C	0.657243	0.374573	0
23	N	0.631581	0.369938	0
24	C	0.687768	0.359525	3e-06
25	O	0.706405	0.382702	5e-06
26	C	0.694123	0.338844	6e-06
27	C	0.718522	0.343835	5e-06
28	N	0.738701	0.370205	0
29	C	0.672388	0.312168	4e-06
30	O	0.677438	0.294285	7e-06
31	C	0.645448	0.306197	0.999999
32	C	0.626287	0.281861	0.999998
33	N	0.630122	0.260258	0
34	H	0.673118	0.393868	1e-06
35	H	0.723659	0.329022	8e-06
36	H	0.60692	0.278386	0.999997
37	C	0.384071	0.614591	0
38	C	0.39613	0.602263	0.079654
39	C	0.401122	0.608104	0.27857
40	C	0.414683	0.597266	0.414621
41	C	0.419429	0.602926	0.606101
42	C	0.431958	0.590228	0.69153
43	C	0.43657	0.575256	0.563395
44	C	0.448715	0.559865	0.605094
45	C	0.451384	0.551375	0.783139
46	C	0.464473	0.53675	0.77659
47	C	0.471571	0.534206	0.593364
48	C	0.485476	0.520932	0.529621
49	C	0.506145	0.522509	0.634627
50	N	0.519834	0.510618	0.587471
51	C	0.512946	0.496173	0.425774
52	C	0.528901	0.484031	0.386173
53	C	0.54878	0.48507	0.496442
54	C	0.560194	0.471074	0.415877
55	C	0.548999	0.459451	0.243973
56	C	0.55552	0.443768	0.122551
57	C	0.546577	0.434714	0.940104
58	C	0.557084	0.419661	0.862743
59	C	0.57383	0.417543	0.988032
60	C	0.58865	0.40221	0.946943
61	C	0.586168	0.389131	0.77841
62	S	0.60471	0.374357	0.777455
63	C	0.615929	0.385409	0
64	C	0.606107	0.399991	0.076463
65	S	0.576734	0.433665	0.195965
66	S	0.524689	0.46594	0.184877
67	C	0.492503	0.493408	0.311502
68	C	0.478721	0.505853	0.364333
69	S	0.46246	0.549941	0.432775
70	S	0.42532	0.576855	0.340468
71	C	0.392558	0.624643	0.339318
72	S	0.378645	0.632934	0.157769
73	H	0.401111	0.589745	6.6e-05
74	H	0.414352	0.615493	0.683897
75	H	0.437424	0.592283	0.840884
76	H	0.444133	0.555222	0.913912
77	H	0.46821	0.528325	0.901383
78	H	0.512804	0.533944	0.764715
79	H	0.554866	0.495546	0.630421
80	H	0.576013	0.469854	0.482985
81	H	0.533044	0.438617	0.862972
82	H	0.552305	0.411018	0.721969
83	H	0.574483	0.387296	0.654536
84	H	0.611135	0.408614	0.217311
85	H	0.486862	0.481786	0.182553
86	H	0.462606	0.503379	0.275277
87	H	0.393612	0.632458	0.480441
88	C	0.385324	0.770683	0
89	C	0.397634	0.79493	0.079654
90	C	0.391755	0.794071	0.27857
91	C	0.402564	0.818325	0.414621
92	C	0.396868	0.817403	0.606101
93	C	0.409546	0.842482	0.69153
94	C	0.42454	0.861968	0.563395
95	C	0.439921	0.889348	0.605094
96	C	0.448423	0.900451	0.783139
97	C	0.463032	0.928007	0.77659
98	C	0.465552	0.937586	0.593364
99	C	0.478802	0.964607	0.529621
100	C	0.47713	0.983556	0.634627
101	N	0.488994	0.008986	0.587471
102	C	0.503511	0.016529	0.425774
103	C	0.515617	0.044459	0.386173
104	C	0.514488	0.06316	0.496442
105	C	0.528473	0.088427	0.415877
106	C	0.540178	0.088883	0.243973
107	C	0.555877	0.110972	0.122551
108	C	0.564996	0.111107	0.940104
109	C	0.580045	0.136526	0.862743
110	C	0.582095	0.155259	0.988032
111	C	0.597407	0.185239	0.946943
112	C	0.610533	0.195795	0.77841
113	S	0.625268	0.228914	0.777455
114	C	0.614136	0.229049	0
115	C	0.599555	0.204779	0.076463
116	S	0.565915	0.142092	0.195965
117	S	0.533778	0.058288	0.184877
118	C	0.506373	0.998987	0.311502
119	C	0.493954	0.972914	0.364333
120	S	0.449813	0.912876	0.432775
121	S	0.422986	0.849207	0.340468
122	C	0.375207	0.769102	0.339318
123	S	0.366954	0.747035	0.157769
124	H	0.410166	0.812339	6.6e-05
125	H	0.384287	0.79985	0.683897
126	H	0.407461	0.845863	0.840884
127	H	0.444597	0.889422	0.913912
128	H	0.471464	0.940104	0.901383
129	H	0.465633	0.978784	0.764715
130	H	0.503955	0.058772	0.630421
131	H	0.529627	0.105346	0.482985
132	H	0.561141	0.093786	0.862972
133	H	0.588734	0.140385	0.721969
134	H	0.612425	0.186022	0.654536
135	H	0.590886	0.201186	0.217311
136	H	0.518053	0.004957	0.182553
137	H	0.496506	0.959377	0.275277
138	H	0.367365	0.762368	0.480441
139	C	0.230202	0.614324	0
140	C	0.205832	0.602406	0.079654
141	C	0.20672	0.597424	0.27857
142	C	0.182349	0.584008	0.414621
143	C	0.1833	0.579271	0.606101
144	C	0.158093	0.566888	0.69153
145	C	0.138487	0.562375	0.563395
146	C	0.110961	0.550386	0.605094
147	C	0.09979	0.547773	0.783139
148	C	0.072091	0.534842	0.77659
149	C	0.062474	0.527807	0.593364
150	C	0.035318	0.51406	0.529621
151	C	0.016322	0.493533	0.634627
152	N	0.990769	0.479995	0.587471
153	C	0.98314	0.486897	0.425774
154	C	0.955078	0.47111	0.386173
155	C	0.936329	0.451369	0.496442
156	C	0.910929	0.440099	0.415877
157	C	0.91042	0.451265	0.243973
158	C	0.888199	0.444859	0.122551
159	C	0.888024	0.453778	0.940104
160	C	0.862467	0.443412	0.862743
161	C	0.843671	0.426796	0.988032
162	C	0.81354	0.41215	0.946943
163	C	0.802896	0.414672	0.77841
164	S	0.769619	0.396328	0.777455
165	C	0.769532	0.385141	0
166	C	0.793935	0.394829	0.076463
167	S	0.856947	0.423842	0.195965
168	S	0.94113	0.475371	0.184877
169	C	0.00072	0.507204	0.311502
170	C	0.026921	0.520833	0.364333
171	S	0.087323	0.536783	0.432775
172	S	0.15129	0.573537	0.340468
173	C	0.231832	0.605854	0.339318
174	S	0.253998	0.61963	0.157769
175	H	0.188319	0.597516	6.6e-05
176	H	0.200957	0.584257	0.683897
177	H	0.154712	0.561453	0.840884
178	H	0.110866	0.554955	0.913912
179	H	0.059922	0.53117	0.901383
180	H	0.021159	0.486871	0.764715
181	H	0.940776	0.445281	0.630421
182	H	0.893957	0.424399	0.482985
183	H	0.905411	0.467196	0.862972
184	H	0.858558	0.448196	0.721969
185	H	0.812688	0.426281	0.654536
186	H	0.797576	0.389799	0.217311
187	H	0.994681	0.512856	0.182553
188	H	0.040485	0.536843	0.275277
189	H	0.23862	0.604773	0.480441
