data_C60H36N6O6_2023-05-30_06:42:43
#******************************************
#
# CIF file created by Zeo++
# Zeo++ is an open source package to
# analyze microporous materials
#
#*******************************************

_cell_length_a		29.7373   
_cell_length_b		30.036   
_cell_length_c		7   
_cell_angle_alpha		90   
_cell_angle_beta		90   
_cell_angle_gamma		119.566   

_symmetry_space_group_name_H-M		'P1'
_symmetry_Int_Tables_number		1
_symmetry_cell_setting		Monoclinic

loop_
_symmetry_equiv_pos_as_xyz
'+x,+y,+z'

loop_
_atom_site_label
_atom_site_type_symbol
_atom_site_fract_x
_atom_site_fract_y
_atom_site_fract_z
1	C	0.385413	0.677498	0.999995
2	O	0.431079	0.685463	0.999991
3	C	0.344306	0.624273	0.999998
4	C	0.352475	0.585041	0
5	N	0.403592	0.594215	0
6	C	0.291495	0.614825	3e-06
7	O	0.254544	0.568951	5e-06
8	C	0.278646	0.655759	6e-06
9	C	0.230052	0.645881	5e-06
10	N	0.190054	0.593686	0
11	C	0.321743	0.708559	4e-06
12	O	0.311521	0.743957	7e-06
13	C	0.375395	0.720379	0.999999
14	C	0.413381	0.768547	0.999998
15	N	0.405551	0.811306	0
16	H	0.320996	0.546849	1e-06
17	H	0.219684	0.6752	8e-06
18	H	0.451959	0.775425	0.999997
19	C	0.614587	0.322502	0.999995
20	O	0.568921	0.314537	0.999991
21	C	0.655694	0.375727	0.999998
22	C	0.647525	0.414959	0
23	N	0.596408	0.405785	0
24	C	0.708505	0.385175	3e-06
25	O	0.745456	0.431049	5e-06
26	C	0.721354	0.344241	6e-06
27	C	0.769948	0.354119	5e-06
28	N	0.809946	0.406314	0
29	C	0.678257	0.291441	4e-06
30	O	0.688479	0.256043	7e-06
31	C	0.624605	0.279621	0.999999
32	C	0.586619	0.231453	0.999998
33	N	0.594449	0.188694	0
34	H	0.679004	0.453151	1e-06
35	H	0.780316	0.3248	8e-06
36	H	0.548041	0.224575	0.999997
37	C	0.434926	0.563593	0
38	C	0.421599	0.512268	0.014001
39	C	0.438864	0.495685	0.169747
40	C	0.469847	0.530372	0.310815
41	C	0.487896	0.513912	0.477461
42	C	0.513629	0.487604	0.477478
43	C	0.531145	0.470615	0.310813
44	C	0.561675	0.504851	0.167826
45	C	0.578443	0.487774	0.012086
46	C	0.565074	0.436407	0
47	C	0.535268	0.402027	0.142331
48	C	0.518516	0.419204	0.297859
49	C	0.482432	0.581739	0.295966
50	C	0.465183	0.598422	0.140428
51	H	0.397864	0.484883	0.905313
52	H	0.427977	0.455466	0.179863
53	H	0.478708	0.524678	0.614421
54	H	0.523255	0.477274	0.614478
55	H	0.572592	0.5451	0.176428
56	H	0.601829	0.514811	0.901904
57	H	0.524889	0.361956	0.133829
58	H	0.49523	0.392054	0.40814
59	H	0.506068	0.609237	0.404752
60	H	0.475532	0.638463	0.130433
61	C	0.436073	0.87255	0
62	C	0.487806	0.91029	0.014001
63	C	0.504332	0.943747	0.169747
64	C	0.469178	0.939905	0.310815
65	C	0.485575	0.974013	0.477461
66	C	0.511807	0.025459	0.477478
67	C	0.52874	0.059567	0.310813
68	C	0.494044	0.055725	0.167826
69	C	0.511072	0.089182	0.012086
70	C	0.562847	0.126922	0
71	C	0.597682	0.131622	0.142331
72	C	0.580553	0.09808	0.297859
73	C	0.417411	0.901392	0.295966
74	C	0.400783	0.86785	0.140428
75	H	0.515553	0.914038	0.905313
76	H	0.544874	0.972884	0.179863
77	H	0.474828	0.954284	0.614421
78	H	0.522112	0.045188	0.614478
79	H	0.453472	0.026588	0.176428
80	H	0.483678	0.085434	0.901904
81	H	0.63807	0.161112	0.133829
82	H	0.60806	0.102039	0.40814
83	H	0.38955	0.897433	0.404752
84	H	0.360425	0.83836	0.130433
85	C	0.128197	0.563064	0
86	C	0.089791	0.576649	0.014001
87	C	0.056	0.559774	0.169747
88	C	0.060171	0.52893	0.310815
89	C	0.025726	0.511282	0.477461
90	C	0.97376	0.486144	0.477478
91	C	0.939311	0.469025	0.310813
92	C	0.943477	0.438631	0.167826
93	C	0.909682	0.422251	0.012086
94	C	0.871276	0.435878	0
95	C	0.866247	0.465559	0.142331
96	C	0.900127	0.481922	0.297859
97	C	0.099354	0.516077	0.295966
98	C	0.13323	0.532934	0.140428
99	H	0.08578	0.600285	0.905313
100	H	0.026345	0.570856	0.179863
101	H	0.045661	0.520245	0.614421
102	H	0.953829	0.476745	0.614478
103	H	0.973133	0.427519	0.176428
104	H	0.91369	0.398962	0.901904
105	H	0.836237	0.476139	0.133829
106	H	0.895907	0.505114	0.40814
107	H	0.103578	0.492537	0.404752
108	H	0.16324	0.522383	0.130433
