data_C81H39N9O6S12_2023-05-13_00:21:20
#******************************************
#
# CIF file created by Zeo++
# Zeo++ is an open source package to
# analyze microporous materials
#
#*******************************************

_cell_length_a		49.8424   
_cell_length_b		50.1409   
_cell_length_c		7   
_cell_angle_alpha		90   
_cell_angle_beta		90   
_cell_angle_gamma		119.74   

_symmetry_space_group_name_H-M		'P1'
_symmetry_Int_Tables_number		1
_symmetry_cell_setting		Monoclinic

loop_
_symmetry_equiv_pos_as_xyz
'+x,+y,+z'

loop_
_atom_site_label
_atom_site_type_symbol
_atom_site_fract_x
_atom_site_fract_y
_atom_site_fract_z
1	C	0.364429	0.673166	0.999995
2	O	0.391691	0.677946	0.999991
3	C	0.339791	0.641227	0.999998
4	C	0.344582	0.617685	0
5	N	0.375099	0.623191	0
6	C	0.308263	0.635558	3e-06
7	O	0.28612	0.60803	5e-06
8	C	0.300683	0.660121	6e-06
9	C	0.27167	0.654194	5e-06
10	N	0.247696	0.622873	0
11	C	0.326507	0.691805	4e-06
12	O	0.320483	0.713046	7e-06
13	C	0.358542	0.698898	0.999999
14	C	0.381307	0.727802	0.999998
15	N	0.376726	0.75346	0
16	H	0.32572	0.594767	1e-06
17	H	0.265546	0.671787	8e-06
18	H	0.404338	0.731929	0.999997
19	C	0.635571	0.326834	0.999995
20	O	0.608309	0.322054	0.999991
21	C	0.660209	0.358773	0.999998
22	C	0.655418	0.382315	0
23	N	0.624901	0.376809	0
24	C	0.691737	0.364442	3e-06
25	O	0.71388	0.39197	5e-06
26	C	0.699317	0.339879	6e-06
27	C	0.72833	0.345806	5e-06
28	N	0.752304	0.377127	0
29	C	0.673493	0.308195	4e-06
30	O	0.679517	0.286954	7e-06
31	C	0.641458	0.301102	0.999999
32	C	0.618693	0.272198	0.999998
33	N	0.623274	0.24654	0
34	H	0.67428	0.405233	1e-06
35	H	0.734454	0.328213	8e-06
36	H	0.595662	0.268071	0.999997
37	C	0.393729	0.604815	0
38	C	0.406993	0.591733	0.109371
39	C	0.420676	0.578235	0.993105
40	C	0.437924	0.561224	0.07035
41	C	0.441834	0.557369	0.260829
42	C	0.458305	0.541123	0.288859
43	C	0.466701	0.53284	0.119578
44	C	0.483777	0.515997	0.09106
45	C	0.494008	0.505901	0.246638
46	C	0.510155	0.489975	0.219036
47	C	0.516042	0.484174	0.034169
48	C	0.532743	0.467703	0.985605
49	C	0.539427	0.461111	0.80533
50	C	0.556029	0.444737	0.809432
51	C	0.561707	0.439136	0.993264
52	C	0.579572	0.421517	0.045401
53	C	0.585013	0.41615	0.23105
54	S	0.604967	0.396471	0.241315
55	C	0.606271	0.395185	0
56	C	0.592058	0.409202	0.910353
57	S	0.547034	0.453607	0.157384
58	N	0.506503	0.493589	0.88027
59	C	0.49088	0.508998	0.91189
60	S	0.454036	0.54533	0.928696
61	C	0.417035	0.581825	0.800934
62	S	0.397316	0.601276	0.762209
63	H	0.406876	0.591849	0.263935
64	H	0.433488	0.565601	0.376701
65	H	0.463576	0.535925	0.429373
66	H	0.489717	0.510127	0.392623
67	H	0.51772	0.482507	0.34303
68	H	0.532562	0.467883	0.675299
69	H	0.5632	0.437664	0.682312
70	H	0.578406	0.422666	0.362508
71	H	0.590697	0.410545	0.756674
72	H	0.484167	0.515625	0.780345
73	H	0.424844	0.574124	0.679776
74	C	0.395066	0.790211	0
75	C	0.408123	0.816375	0.109371
76	C	0.421595	0.843369	0.993105
77	C	0.438573	0.877391	0.07035
78	C	0.44242	0.885103	0.260829
79	C	0.458635	0.917595	0.288859
80	C	0.466902	0.934159	0.119578
81	C	0.483712	0.967844	0.09106
82	C	0.493789	0.988031	0.246638
83	C	0.509685	0.019882	0.219036
84	C	0.515474	0.031489	0.034169
85	C	0.531914	0.064433	0.985605
86	C	0.538493	0.077618	0.80533
87	C	0.554835	0.110366	0.809432
88	C	0.560425	0.121568	0.993264
89	C	0.57801	0.156806	0.045401
90	C	0.583366	0.16754	0.23105
91	S	0.603008	0.2069	0.241315
92	C	0.604292	0.209472	0
93	C	0.590301	0.181437	0.910353
94	S	0.545982	0.092624	0.157384
95	N	0.506077	0.012666	0.88027
96	C	0.490698	0.981848	0.91189
97	S	0.454436	0.909178	0.928696
98	C	0.418011	0.836187	0.800934
99	S	0.398598	0.797287	0.762209
100	H	0.408007	0.816144	0.263935
101	H	0.434205	0.86864	0.376701
102	H	0.463823	0.927991	0.429373
103	H	0.489571	0.979572	0.392623
104	H	0.517138	0.034812	0.34303
105	H	0.531734	0.064075	0.675299
106	H	0.561894	0.124511	0.682312
107	H	0.576863	0.154507	0.362508
108	H	0.588961	0.178751	0.756674
109	H	0.484084	0.968601	0.780345
110	H	0.425698	0.851591	0.679776
111	C	0.210725	0.604498	0
112	C	0.184405	0.591416	0.109371
113	C	0.157249	0.57792	0.993105
114	C	0.123024	0.560909	0.07035
115	C	0.115266	0.557052	0.260829
116	C	0.08258	0.540806	0.288859
117	C	0.065916	0.532525	0.119578
118	C	0.03203	0.515683	0.09106
119	C	0.011723	0.505592	0.246638
120	C	0.979681	0.489667	0.219036
121	C	0.968004	0.48386	0.034169
122	C	0.934864	0.467388	0.985605
123	C	0.9216	0.460795	0.80533
124	C	0.888656	0.444421	0.809432
125	C	0.877388	0.43882	0.993264
126	C	0.841938	0.4212	0.045401
127	C	0.831141	0.415834	0.23105
128	S	0.791545	0.396153	0.241315
129	C	0.788958	0.394867	0
130	C	0.81716	0.408885	0.910353
131	S	0.906504	0.453292	0.157384
132	N	0.98694	0.493269	0.88027
133	C	0.017943	0.508678	0.91189
134	S	0.091047	0.545017	0.928696
135	C	0.164474	0.581511	0.800934
136	S	0.203607	0.60096	0.762209
137	H	0.184637	0.591531	0.263935
138	H	0.131827	0.565283	0.376701
139	H	0.072122	0.535608	0.429373
140	H	0.020232	0.509825	0.392623
141	H	0.964662	0.482205	0.34303
142	H	0.935224	0.467567	0.675299
143	H	0.874426	0.437348	0.682312
144	H	0.844251	0.42235	0.362508
145	H	0.819862	0.410228	0.756674
146	H	0.031269	0.515298	0.780345
147	H	0.148978	0.573809	0.679776
