data_C54H27N9O6S6_2023-05-12_10:39:59
#******************************************
#
# CIF file created by Zeo++
# Zeo++ is an open source package to
# analyze microporous materials
#
#*******************************************

_cell_length_a		34.6128   
_cell_length_b		34.9115   
_cell_length_c		7   
_cell_angle_alpha		90   
_cell_angle_beta		90   
_cell_angle_gamma		119.626   

_symmetry_space_group_name_H-M		'P1'
_symmetry_Int_Tables_number		1
_symmetry_cell_setting		Monoclinic

loop_
_symmetry_equiv_pos_as_xyz
'+x,+y,+z'

loop_
_atom_site_label
_atom_site_type_symbol
_atom_site_fract_x
_atom_site_fract_y
_atom_site_fract_z
1	C	0.378089	0.675991	0.999995
2	O	0.417331	0.682848	0.999991
3	C	0.342716	0.630171	0.999998
4	C	0.349692	0.596398	0
5	N	0.393619	0.604296	0
6	C	0.297334	0.622038	3e-06
7	O	0.265539	0.582546	5e-06
8	C	0.286338	0.657276	6e-06
9	C	0.244579	0.648773	5e-06
10	N	0.21016	0.60384	0
11	C	0.32342	0.70273	4e-06
12	O	0.314675	0.733203	7e-06
13	C	0.369528	0.712905	0.999999
14	C	0.402213	0.754372	0.999998
15	N	0.395531	0.791181	0
16	H	0.322607	0.56352	1e-06
17	H	0.235702	0.674013	8e-06
18	H	0.435364	0.760293	0.999997
19	C	0.621911	0.324009	0.999995
20	O	0.582669	0.317152	0.999991
21	C	0.657284	0.369829	0.999998
22	C	0.650308	0.403602	0
23	N	0.606381	0.395704	0
24	C	0.702666	0.377962	3e-06
25	O	0.734461	0.417454	5e-06
26	C	0.713662	0.342724	6e-06
27	C	0.755421	0.351227	5e-06
28	N	0.78984	0.39616	0
29	C	0.67658	0.29727	4e-06
30	O	0.685325	0.266797	7e-06
31	C	0.630472	0.287095	0.999999
32	C	0.597787	0.245628	0.999998
33	N	0.604469	0.208819	0
34	H	0.677393	0.43648	1e-06
35	H	0.764298	0.325987	8e-06
36	H	0.564636	0.239707	0.999997
37	C	0.420507	0.577934	0
38	C	0.417521	0.580862	0.194285
39	C	0.438618	0.560179	0.291789
40	C	0.456563	0.542585	0.166771
41	C	0.481811	0.517833	0.228524
42	C	0.489458	0.510336	0.413951
43	N	0.512505	0.48774	0.408648
44	C	0.519976	0.480415	0.222395
45	C	0.543444	0.457407	0.171852
46	C	0.56182	0.439391	0.293479
47	C	0.582774	0.418848	0.193675
48	C	0.579493	0.422066	0
49	S	0.552069	0.448952	0.937089
50	C	0.500962	0.499057	0.108106
51	S	0.447875	0.551103	0.933853
52	H	0.401287	0.596777	0.264166
53	H	0.440323	0.558508	0.445739
54	H	0.480715	0.518907	0.54933
55	H	0.522517	0.477924	0.52519
56	H	0.560627	0.440559	0.447745
57	H	0.599119	0.402823	0.261681
58	H	0.500869	0.499148	0.95345
59	C	0.421819	0.843904	0
60	C	0.418899	0.838048	0.194285
61	C	0.439525	0.879415	0.291789
62	C	0.45707	0.914602	0.166771
63	C	0.481753	0.964107	0.228524
64	C	0.48923	0.979101	0.413951
65	N	0.511762	0.024293	0.408648
66	C	0.519067	0.038942	0.222395
67	C	0.542011	0.084958	0.171852
68	C	0.559977	0.12099	0.293479
69	C	0.580462	0.162075	0.193675
70	C	0.577254	0.155641	0
71	S	0.550442	0.101869	0.937089
72	C	0.500477	0.001659	0.108106
73	S	0.448576	0.897567	0.933853
74	H	0.403029	0.806218	0.264166
75	H	0.441192	0.882758	0.445739
76	H	0.480683	0.96196	0.54933
77	H	0.521551	0.043924	0.52519
78	H	0.558812	0.118652	0.447745
79	H	0.596443	0.194124	0.261681
80	H	0.500387	0.001477	0.95345
81	C	0.156983	0.577479	0
82	C	0.162889	0.580407	0.194285
83	C	0.121166	0.559723	0.291789
84	C	0.085676	0.54213	0.166771
85	C	0.035745	0.517377	0.228524
86	C	0.020622	0.50988	0.413951
87	N	0.975042	0.487284	0.408648
88	C	0.960266	0.47996	0.222395
89	C	0.913855	0.456952	0.171852
90	C	0.877513	0.438936	0.293479
91	C	0.836074	0.418394	0.193675
92	C	0.842563	0.42161	0
93	S	0.896798	0.448496	0.937089
94	C	0.997871	0.498601	0.108106
95	S	0.102858	0.550647	0.933853
96	H	0.194994	0.596322	0.264166
97	H	0.117795	0.558052	0.445739
98	H	0.037912	0.518451	0.54933
99	H	0.955242	0.477469	0.52519
100	H	0.87987	0.440106	0.447745
101	H	0.803748	0.402369	0.261681
102	H	0.998054	0.498692	0.95345
