data_C72H36N12O6S6_2023-05-13_04:21:54
#******************************************
#
# CIF file created by Zeo++
# Zeo++ is an open source package to
# analyze microporous materials
#
#*******************************************

_cell_length_a		41.4232   
_cell_length_b		41.7218   
_cell_length_c		7   
_cell_angle_alpha		90   
_cell_angle_beta		90   
_cell_angle_gamma		119.687   

_symmetry_space_group_name_H-M		'P1'
_symmetry_Int_Tables_number		1
_symmetry_cell_setting		Monoclinic

loop_
_symmetry_equiv_pos_as_xyz
'+x,+y,+z'

loop_
_atom_site_label
_atom_site_type_symbol
_atom_site_fract_x
_atom_site_fract_y
_atom_site_fract_z
1	C	0.370741	0.674474	0.999995
2	O	0.403538	0.680215	0.999991
3	C	0.341136	0.63611	0.999998
4	C	0.34693	0.607832	0
5	N	0.383643	0.614445	0
6	C	0.303207	0.6293	3e-06
7	O	0.276598	0.596235	5e-06
8	C	0.294055	0.658804	6e-06
9	C	0.259153	0.651685	5e-06
10	N	0.230346	0.614063	0
11	C	0.325087	0.696862	4e-06
12	O	0.317812	0.722376	7e-06
13	C	0.363625	0.705381	0.999999
14	C	0.39098	0.7401	0.999998
15	N	0.385434	0.77092	0
16	H	0.324264	0.580304	1e-06
17	H	0.251761	0.672818	8e-06
18	H	0.418686	0.745058	0.999997
19	C	0.629259	0.325526	0.999995
20	O	0.596462	0.319785	0.999991
21	C	0.658864	0.36389	0.999998
22	C	0.65307	0.392168	0
23	N	0.616357	0.385555	0
24	C	0.696793	0.3707	3e-06
25	O	0.723402	0.403765	5e-06
26	C	0.705945	0.341196	6e-06
27	C	0.740847	0.348315	5e-06
28	N	0.769654	0.385937	0
29	C	0.674913	0.303138	4e-06
30	O	0.682188	0.277624	7e-06
31	C	0.636375	0.294619	0.999999
32	C	0.60902	0.2599	0.999998
33	N	0.614566	0.22908	0
34	H	0.675736	0.419696	1e-06
35	H	0.748239	0.327182	8e-06
36	H	0.581314	0.254942	0.999997
37	C	0.593917	0.407627	0
38	C	0.586874	0.414537	0.18177
39	C	0.566834	0.434242	0.179926
40	C	0.559205	0.441759	0.997089
41	C	0.539194	0.46144	0.937793
42	C	0.533679	0.466857	0.746352
43	C	0.514773	0.48545	0.70285
44	N	0.501083	0.498919	0.835064
45	C	0.505937	0.494152	0.022719
46	C	0.490069	0.509763	0.162117
47	C	0.492377	0.507494	0.36005
48	C	0.47665	0.522965	0.478296
49	C	0.458835	0.540488	0.397786
50	C	0.457252	0.542044	0.200253
51	C	0.439355	0.559646	0.094904
52	C	0.436772	0.56218	0.898137
53	C	0.417521	0.581117	0.842917
54	C	0.406083	0.592373	0
55	S	0.417962	0.580695	0.209085
56	N	0.472536	0.527008	0.085172
57	C	0.524868	0.475536	0.076016
58	S	0.577112	0.424166	0.830307
59	H	0.595394	0.406149	0.309823
60	H	0.558582	0.442345	0.309741
61	H	0.543628	0.457066	0.629285
62	H	0.509972	0.490166	0.555551
63	H	0.506095	0.494001	0.426459
64	H	0.478284	0.521359	0.632655
65	H	0.44665	0.552474	0.490349
66	H	0.448434	0.550704	0.798489
67	H	0.412616	0.585937	0.696541
68	H	0.528573	0.471899	0.225854
69	C	0.591771	0.184556	0
70	C	0.584878	0.170719	0.18177
71	C	0.565218	0.131303	0.179926
72	C	0.557719	0.116283	0.997089
73	C	0.538084	0.07692	0.937793
74	C	0.532679	0.066078	0.746352
75	C	0.51413	0.02889	0.70285
76	N	0.500691	0.001955	0.835064
77	C	0.505447	0.011497	0.022719
78	C	0.489872	0.980278	0.162117
79	C	0.492137	0.984818	0.36005
80	C	0.476701	0.953878	0.478296
81	C	0.459219	0.918833	0.397786
82	C	0.457667	0.91572	0.200253
83	C	0.440106	0.880515	0.094904
84	C	0.437577	0.87544	0.898137
85	C	0.418684	0.837568	0.842917
86	C	0.407455	0.815063	0
87	S	0.419106	0.838426	0.209085
88	N	0.472668	0.945789	0.085172
89	C	0.52402	0.048732	0.076016
90	S	0.575271	0.151489	0.830307
91	H	0.593246	0.187486	0.309823
92	H	0.557134	0.115084	0.309741
93	H	0.542448	0.085654	0.629285
94	H	0.509424	0.019452	0.555551
95	H	0.505598	0.011804	0.426459
96	H	0.478304	0.957092	0.632655
97	H	0.447261	0.894863	0.490349
98	H	0.449027	0.898387	0.798489
99	H	0.413876	0.827925	0.696541
100	H	0.527648	0.056013	0.225854
101	C	0.813735	0.407245	0
102	C	0.827671	0.414173	0.18177
103	C	0.86737	0.433883	0.179926
104	C	0.882499	0.441386	0.997089
105	C	0.922145	0.461069	0.937793
106	C	0.933065	0.466494	0.746352
107	C	0.97052	0.485088	0.70285
108	N	0.997648	0.498553	0.835064
109	C	0.988039	0.493779	0.022719
110	C	0.019482	0.509387	0.162117
111	C	0.014909	0.507116	0.36005
112	C	0.046072	0.522585	0.478296
113	C	0.081369	0.540107	0.397786
114	C	0.084504	0.541664	0.200253
115	C	0.119962	0.559267	0.094904
116	C	0.125074	0.561807	0.898137
117	C	0.163218	0.580742	0.842917
118	C	0.185885	0.591992	0
119	S	0.162355	0.580308	0.209085
120	N	0.054219	0.526631	0.085172
121	C	0.950535	0.47516	0.076016
122	S	0.84704	0.423774	0.830307
123	H	0.810783	0.405793	0.309823
124	H	0.883706	0.441999	0.309741
125	H	0.913347	0.456708	0.629285
126	H	0.980026	0.48981	0.555551
127	H	0.987729	0.493624	0.426459
128	H	0.042835	0.520977	0.632655
129	H	0.105512	0.552092	0.490349
130	H	0.101962	0.550337	0.798489
131	H	0.172931	0.585567	0.696541
132	H	0.943202	0.471515	0.225854
