data_C54H27N9O6S6_2023-05-30_06:14:51
#******************************************
#
# CIF file created by Zeo++
# Zeo++ is an open source package to
# analyze microporous materials
#
#*******************************************

_cell_length_a		34.7103   
_cell_length_b		35.009   
_cell_length_c		7   
_cell_angle_alpha		90   
_cell_angle_beta		90   
_cell_angle_gamma		119.627   

_symmetry_space_group_name_H-M		'P1'
_symmetry_Int_Tables_number		1
_symmetry_cell_setting		Monoclinic

loop_
_symmetry_equiv_pos_as_xyz
'+x,+y,+z'

loop_
_atom_site_label
_atom_site_type_symbol
_atom_site_fract_x
_atom_site_fract_y
_atom_site_fract_z
1	C	0.377964	0.675965	0.999995
2	O	0.417095	0.682803	0.999991
3	C	0.342689	0.630272	0.999998
4	C	0.349645	0.596593	0
5	N	0.393448	0.604469	0
6	C	0.297434	0.622162	3e-06
7	O	0.265728	0.58278	5e-06
8	C	0.28647	0.657303	6e-06
9	C	0.244828	0.648823	5e-06
10	N	0.210504	0.604014	0
11	C	0.323449	0.70263	4e-06
12	O	0.314729	0.733018	7e-06
13	C	0.369427	0.712777	0.999999
14	C	0.402022	0.754129	0.999998
15	N	0.395359	0.790836	0
16	H	0.322635	0.563806	1e-06
17	H	0.235976	0.673993	8e-06
18	H	0.43508	0.760033	0.999997
19	C	0.622036	0.324035	0.999995
20	O	0.582905	0.317197	0.999991
21	C	0.657311	0.369728	0.999998
22	C	0.650355	0.403407	0
23	N	0.606552	0.395531	0
24	C	0.702566	0.377838	3e-06
25	O	0.734272	0.41722	5e-06
26	C	0.71353	0.342697	6e-06
27	C	0.755172	0.351177	5e-06
28	N	0.789496	0.395986	0
29	C	0.676551	0.29737	4e-06
30	O	0.685271	0.266982	7e-06
31	C	0.630573	0.287223	0.999999
32	C	0.597978	0.245871	0.999998
33	N	0.604641	0.209164	0
34	H	0.677365	0.436194	1e-06
35	H	0.764024	0.326007	8e-06
36	H	0.56492	0.239967	0.999997
37	C	0.42026	0.57818	0
38	C	0.42597	0.572582	0.81017
39	S	0.454467	0.544642	0.781585
40	C	0.458884	0.540312	0.02312
41	C	0.482696	0.516965	0.116426
42	C	0.486953	0.512792	0.309647
43	N	0.509754	0.490436	0.333848
44	C	0.520369	0.480028	0.159188
45	C	0.544344	0.456522	0.137766
46	C	0.556286	0.444815	0.968368
47	C	0.57974	0.42182	0
48	C	0.585435	0.416233	0.189673
49	S	0.562099	0.439112	0.331523
50	C	0.503701	0.49637	0.021672
51	C	0.439031	0.559777	0.124111
52	H	0.41503	0.583308	0.687077
53	H	0.475954	0.523576	0.432366
54	H	0.51781	0.482538	0.461002
55	H	0.548466	0.452484	0.828772
56	H	0.601985	0.400006	0.252516
57	H	0.506369	0.493755	0.868779
58	H	0.438063	0.560726	0.278478
59	C	0.421574	0.843412	0
60	C	0.427158	0.854609	0.81017
61	S	0.45502	0.910488	0.781585
62	C	0.459337	0.919148	0.02312
63	C	0.48262	0.965843	0.116426
64	C	0.486782	0.97419	0.309647
65	N	0.509075	0.018901	0.333848
66	C	0.519454	0.039716	0.159188
67	C	0.542895	0.086729	0.137766
68	C	0.55457	0.110144	0.968368
69	C	0.577501	0.156134	0
70	C	0.583073	0.167306	0.189673
71	S	0.560256	0.121545	0.331523
72	C	0.503157	0.007032	0.021672
73	C	0.439927	0.880219	0.124111
74	H	0.416461	0.833157	0.687077
75	H	0.476027	0.952621	0.432366
76	H	0.516951	0.034697	0.461002
77	H	0.546922	0.094808	0.828772
78	H	0.599254	0.199758	0.252516
79	H	0.505766	0.012262	0.868779
80	H	0.43898	0.878321	0.278478
81	C	0.157477	0.577726	0
82	C	0.146184	0.572128	0.81017
83	S	0.089825	0.544189	0.781585
84	C	0.08109	0.539858	0.02312
85	C	0.033996	0.516511	0.116426
86	C	0.025577	0.512337	0.309647
87	N	0.980482	0.489982	0.333848
88	C	0.959488	0.479575	0.159188
89	C	0.912072	0.456068	0.137766
90	C	0.888455	0.44436	0.968368
91	C	0.842071	0.421365	0
92	C	0.830803	0.415781	0.189673
93	S	0.876956	0.438661	0.331523
94	C	0.992453	0.495917	0.021672
95	C	0.120354	0.559322	0.124111
96	H	0.16782	0.582854	0.687077
97	H	0.04733	0.523121	0.432366
98	H	0.964551	0.482084	0.461002
99	H	0.903924	0.452027	0.828772
100	H	0.798073	0.399555	0.252516
101	H	0.987177	0.493302	0.868779
102	H	0.122268	0.560271	0.278478
