data_C138H66N6O6S18_2023-05-12_21:12:53
#******************************************
#
# CIF file created by Zeo++
# Zeo++ is an open source package to
# analyze microporous materials
#
#*******************************************

_cell_length_a		65.785   
_cell_length_b		66.0833   
_cell_length_c		7   
_cell_angle_alpha		90   
_cell_angle_beta		90   
_cell_angle_gamma		119.803   

_symmetry_space_group_name_H-M		'P1'
_symmetry_Int_Tables_number		1
_symmetry_cell_setting		Monoclinic

loop_
_symmetry_equiv_pos_as_xyz
'+x,+y,+z'

loop_
_atom_site_label
_atom_site_type_symbol
_atom_site_fract_x
_atom_site_fract_y
_atom_site_fract_z
1	C	0.356899	0.671601	0.999995
2	O	0.37756	0.67523	0.999991
3	C	0.338201	0.647352	0.999998
4	C	0.341809	0.629479	0
5	N	0.364935	0.633658	0
6	C	0.314309	0.643048	3e-06
7	O	0.297505	0.622148	5e-06
8	C	0.308589	0.661697	6e-06
9	C	0.286602	0.657197	5e-06
10	N	0.268407	0.633417	0
11	C	0.328186	0.685752	4e-06
12	O	0.323642	0.701879	7e-06
13	C	0.352464	0.691137	0.999999
14	C	0.36974	0.713082	0.999998
15	N	0.366294	0.732563	0
16	H	0.327496	0.612079	1e-06
17	H	0.281979	0.670554	8e-06
18	H	0.387194	0.716216	0.999997
19	C	0.643101	0.328399	0.999995
20	O	0.62244	0.32477	0.999991
21	C	0.661799	0.352648	0.999998
22	C	0.658191	0.370521	0
23	N	0.635065	0.366342	0
24	C	0.685691	0.356952	3e-06
25	O	0.702495	0.377852	5e-06
26	C	0.691411	0.338303	6e-06
27	C	0.713398	0.342803	5e-06
28	N	0.731593	0.366583	0
29	C	0.671814	0.314248	4e-06
30	O	0.676358	0.298121	7e-06
31	C	0.647536	0.308863	0.999999
32	C	0.63026	0.286918	0.999998
33	N	0.633706	0.267437	0
34	H	0.672504	0.387921	1e-06
35	H	0.718021	0.329446	8e-06
36	H	0.612806	0.283784	0.999997
37	C	0.620967	0.380293	0
38	C	0.602289	0.358123	0.98642
39	S	0.576453	0.358366	0.979784
40	C	0.590291	0.388372	0.995938
41	C	0.577161	0.400671	0.999002
42	C	0.553433	0.391731	0.969482
43	C	0.546441	0.408948	0.984988
44	C	0.564879	0.430916	0.026234
45	C	0.564288	0.452378	0.05357
46	C	0.583012	0.47473	0.077968
47	C	0.575977	0.491787	0.103145
48	C	0.55199	0.482117	0.096889
49	C	0.538072	0.493746	0.118153
50	C	0.528584	0.493189	0.29887
51	C	0.515579	0.504309	0.33303
52	C	0.506256	0.503441	0.51465
53	C	0.493385	0.514521	0.549607
54	C	0.489748	0.526635	0.4031
55	C	0.498811	0.52796	0.217422
56	C	0.495418	0.540067	0.064762
57	C	0.482593	0.552774	0.088753
58	C	0.490693	0.575036	0.157148
59	C	0.472887	0.581365	0.157835
60	C	0.451568	0.563832	0.089904
61	C	0.429853	0.564239	0.068672
62	C	0.407632	0.545667	0.036257
63	C	0.390286	0.552551	0.02065
64	C	0.399446	0.57632	0.040734
65	C	0.387141	0.589376	0.032516
66	C	0.396392	0.612978	0.996642
67	C	0.379033	0.619707	0
68	C	0.357021	0.601607	0.038309
69	S	0.357318	0.576104	0.069654
70	S	0.429067	0.589798	0.08027
71	S	0.453702	0.53979	0.026397
72	C	0.504856	0.540581	0.8839
73	C	0.517688	0.529293	0.849306
74	C	0.526844	0.529999	0.667286
75	C	0.539618	0.518822	0.632099
76	C	0.543421	0.506871	0.779052
77	C	0.534546	0.505727	0.965159
78	C	0.521405	0.517129	0.99932
79	C	0.511896	0.516507	0.183108
80	S	0.538271	0.452682	0.060832
81	S	0.590479	0.430066	0.043891
82	C	0.614375	0.397701	0.005397
83	H	0.602398	0.341827	0.980015
84	H	0.541277	0.373574	0.938053
85	H	0.5285	0.405051	0.966299
86	H	0.601175	0.478953	0.07847
87	H	0.587959	0.510224	0.124986
88	H	0.531513	0.483902	0.41461
89	H	0.508927	0.494049	0.630692
90	H	0.486134	0.513722	0.690765
91	H	0.479522	0.53504	0.435762
92	H	0.508549	0.586286	0.20456
93	H	0.47581	0.598141	0.207125
94	H	0.403681	0.527731	0.023824
95	H	0.371944	0.540375	0.994135
96	H	0.414775	0.624813	0.968121
97	H	0.340801	0.601949	0.049166
98	H	0.502072	0.55001	0.768595
99	H	0.524028	0.539244	0.550893
100	H	0.546587	0.519334	0.490313
101	H	0.553421	0.498244	0.745903
102	H	0.626712	0.416212	0.015821
103	C	0.619289	0.239294	0
104	C	0.641589	0.242819	0.98642
105	S	0.641448	0.216909	0.979784
106	C	0.61131	0.20077	0.995938
107	C	0.599033	0.175475	0.999002
108	C	0.608089	0.160805	0.969482
109	C	0.590856	0.13671	0.984988
110	C	0.568759	0.133148	0.026234
111	C	0.547245	0.111184	0.05357
112	C	0.524762	0.107523	0.077968
113	C	0.507689	0.083544	0.103145
114	C	0.517479	0.069345	0.096889
115	C	0.505875	0.043933	0.118153
116	C	0.506472	0.035062	0.29887
117	C	0.495375	0.011066	0.33303
118	C	0.496282	0.002668	0.51465
119	C	0.485225	0.978844	0.549607
120	C	0.473094	0.963164	0.4031
121	C	0.47173	0.970849	0.217422
122	C	0.459606	0.955419	0.064762
123	C	0.446917	0.930021	0.088753
124	C	0.424566	0.915895	0.157148
125	C	0.418292	0.891901	0.157835
126	C	0.435954	0.888182	0.089904
127	C	0.435632	0.866204	0.068672
128	C	0.454339	0.862624	0.036257
129	C	0.447507	0.838534	0.02065
130	C	0.423641	0.823961	0.040734
131	C	0.4106	0.798731	0.032516
132	C	0.386902	0.784414	0.996642
133	C	0.380224	0.760465	0
134	C	0.398458	0.756623	0.038309
135	S	0.424025	0.782321	0.069654
136	S	0.410011	0.839965	0.08027
137	S	0.460049	0.914249	0.026397
138	C	0.459053	0.964284	0.8839
139	C	0.470319	0.988276	0.849306
140	C	0.469574	0.996669	0.667286
141	C	0.48073	0.020493	0.632099
142	C	0.492696	0.036175	0.779052
143	C	0.493878	0.028497	0.965159
144	C	0.482499	0.004085	0.99932
145	C	0.48316	0.995257	0.183108
146	S	0.547043	0.085032	0.060832
147	S	0.56951	0.159428	0.043891
148	C	0.601863	0.215406	0.005397
149	H	0.657926	0.259159	0.980015
150	H	0.626341	0.166813	0.938053
151	H	0.594835	0.122767	0.966299
152	H	0.520456	0.121362	0.07847
153	H	0.489158	0.077086	0.124986
154	H	0.515771	0.047222	0.41461
155	H	0.505687	0.014676	0.630692
156	H	0.486055	0.972436	0.690765
157	H	0.464709	0.944634	0.435762
158	H	0.413217	0.92243	0.20456
159	H	0.401462	0.878096	0.207125
160	H	0.472337	0.876565	0.023824
161	H	0.459787	0.83244	0.994135
162	H	0.374964	0.79089	0.968121
163	H	0.39818	0.740168	0.049166
164	H	0.449611	0.952126	0.768595
165	H	0.460318	0.984664	0.550893
166	H	0.480189	0.026908	0.490313
167	H	0.501305	0.054703	0.745903
168	H	0.583256	0.209226	0.015821
169	C	0.75938	0.380052	0
170	C	0.755758	0.398696	0.98642
171	S	0.781735	0.424364	0.979784
172	C	0.798035	0.410496	0.995938
173	C	0.823443	0.423493	0.999002
174	C	0.838114	0.447102	0.969482
175	C	0.862339	0.453981	0.984988
176	C	0.865998	0.435575	0.026234
177	C	0.888103	0.436077	0.05357
178	C	0.891863	0.417386	0.077968
179	C	0.91597	0.424307	0.103145
180	C	0.930167	0.448177	0.096889
181	C	0.955689	0.461959	0.118153
182	C	0.964581	0.471387	0.29887
183	C	0.988682	0.484263	0.33303
184	C	0.997098	0.493529	0.51465
185	C	0.021026	0.506273	0.549607
186	C	0.036795	0.509839	0.4031
187	C	0.029096	0.50083	0.217422
188	C	0.044612	0.504152	0.064762
189	C	0.070126	0.516844	0.088753
190	C	0.084377	0.508708	0.157148
191	C	0.108457	0.526373	0.157835
192	C	0.112115	0.547624	0.089904
193	C	0.134151	0.569196	0.068672
194	C	0.137665	0.591347	0.036257
195	C	0.161844	0.608553	0.02065
196	C	0.176549	0.599358	0.040734
197	C	0.201895	0.611531	0.032516
198	C	0.216342	0.602247	0.996642
199	C	0.240379	0.619466	0
200	C	0.244158	0.641408	0.038309
201	S	0.218294	0.641214	0.069654
202	S	0.160558	0.569875	0.08027
203	S	0.085886	0.545599	0.026397
204	C	0.035727	0.494773	0.8839
205	C	0.011629	0.482069	0.849306
206	C	0.003218	0.47297	0.667286
207	C	0.979289	0.460323	0.632099
208	C	0.963519	0.456592	0.779052
209	C	0.971213	0.465414	0.965159
210	C	0.995732	0.478425	0.99932
211	C	0.00458	0.487874	0.183108
212	S	0.914322	0.461924	0.060832
213	S	0.839647	0.410144	0.043891
214	C	0.783399	0.386532	0.005397
215	H	0.739312	0.398653	0.980015
216	H	0.832019	0.459252	0.938053
217	H	0.876302	0.471821	0.966299
218	H	0.878005	0.399323	0.07847
219	H	0.922519	0.412329	0.124986
220	H	0.952353	0.468514	0.41461
221	H	0.985022	0.490913	0.630692
222	H	0.027447	0.51348	0.690765
223	H	0.055405	0.519965	0.435762
224	H	0.07787	0.490923	0.20456
225	H	0.122364	0.523402	0.207125
226	H	0.123618	0.595343	0.023824
227	H	0.167905	0.626824	0.994135
228	H	0.209897	0.583936	0.968121
229	H	0.260656	0.657521	0.049166
230	H	0.047954	0.497502	0.768595
231	H	0.01529	0.475731	0.550893
232	H	0.97286	0.453397	0.490313
233	H	0.94491	0.446691	0.745903
234	H	0.789669	0.374201	0.015821
