data_C105H54N6O6S18_2023-05-15_17:23:27
#******************************************
#
# CIF file created by Zeo++
# Zeo++ is an open source package to
# analyze microporous materials
#
#*******************************************

_cell_length_a		60.3621   
_cell_length_b		60.6605   
_cell_length_c		7   
_cell_angle_alpha		90   
_cell_angle_beta		90   
_cell_angle_gamma		119.785   

_symmetry_space_group_name_H-M		'P1'
_symmetry_Int_Tables_number		1
_symmetry_cell_setting		Monoclinic

loop_
_symmetry_equiv_pos_as_xyz
'+x,+y,+z'

loop_
_atom_site_label
_atom_site_type_symbol
_atom_site_fract_x
_atom_site_fract_y
_atom_site_fract_z
1	C	0.359015	0.672041	0.999995
2	O	0.38153	0.675994	0.999991
3	C	0.338646	0.645629	0.999998
4	C	0.342584	0.626161	0
5	N	0.367787	0.630714	0
6	C	0.312609	0.640941	3e-06
7	O	0.294304	0.618177	5e-06
8	C	0.306368	0.661254	6e-06
9	C	0.282407	0.656352	5e-06
10	N	0.262587	0.630451	0
11	C	0.327716	0.687455	4e-06
12	O	0.322758	0.70502	7e-06
13	C	0.354174	0.69332	0.999999
14	C	0.372993	0.717223	0.999998
15	N	0.369229	0.738441	0
16	H	0.326993	0.607209	1e-06
17	H	0.277363	0.670901	8e-06
18	H	0.392013	0.720636	0.999997
19	C	0.640985	0.327959	0.999995
20	O	0.61847	0.324006	0.999991
21	C	0.661354	0.354371	0.999998
22	C	0.657416	0.373839	0
23	N	0.632213	0.369286	0
24	C	0.687391	0.359059	3e-06
25	O	0.705696	0.381823	5e-06
26	C	0.693632	0.338746	6e-06
27	C	0.717593	0.343648	5e-06
28	N	0.737413	0.369549	0
29	C	0.672284	0.312545	4e-06
30	O	0.677242	0.29498	7e-06
31	C	0.645826	0.30668	0.999999
32	C	0.627007	0.282777	0.999998
33	N	0.630771	0.261559	0
34	H	0.673007	0.392791	1e-06
35	H	0.722637	0.329099	8e-06
36	H	0.607987	0.279364	0.999997
37	C	0.383157	0.615518	0
38	C	0.393611	0.610057	0.84625
39	C	0.405796	0.596073	0.903453
40	C	0.404192	0.591385	0.098498
41	C	0.414291	0.577865	0.205772
42	C	0.412663	0.573187	0.400018
43	C	0.424859	0.559216	0.45679
44	C	0.435722	0.553318	0.305549
45	C	0.449545	0.539427	0.309783
46	C	0.460492	0.533627	0.158809
47	C	0.472623	0.519632	0.215896
48	C	0.470989	0.514697	0.410256
49	C	0.481029	0.501232	0.51333
50	C	0.478638	0.497046	0.702863
51	C	0.491403	0.482365	0.762855
52	C	0.501761	0.478559	0.576749
53	C	0.515864	0.465645	0.547196
54	C	0.522976	0.453904	0.684342
55	C	0.536988	0.442658	0.6088
56	C	0.540574	0.445824	0.413582
57	C	0.553815	0.437007	0.28938
58	C	0.55746	0.440237	0.094138
59	C	0.571458	0.428972	0.018087
60	C	0.578411	0.417212	0.155764
61	C	0.592636	0.403925	0.130869
62	C	0.599581	0.392063	0.268923
63	C	0.613609	0.380791	0.193208
64	C	0.616843	0.384482	0
65	S	0.603508	0.401007	0.909578
66	S	0.567642	0.420198	0.37597
67	S	0.526674	0.462539	0.326898
68	C	0.495355	0.489695	0.43759
69	S	0.454367	0.527593	0.518546
70	S	0.43076	0.565035	0.096431
71	S	0.387675	0.604293	0.208617
72	H	0.392741	0.615617	0.70066
73	H	0.415292	0.58982	0.803901
74	H	0.403164	0.579394	0.499887
75	H	0.425452	0.553869	0.603573
76	H	0.460011	0.539056	0.012111
77	H	0.482197	0.513455	0.116521
78	H	0.469077	0.503014	0.803266
79	H	0.50678	0.493297	0.864736
80	H	0.477584	0.464173	0.826636
81	H	0.518343	0.453321	0.834477
82	H	0.544014	0.43271	0.69629
83	H	0.550487	0.45025	0.006815
84	H	0.576061	0.429668	0.867816
85	H	0.594902	0.391352	0.419062
86	H	0.620752	0.370663	0.277265
87	H	0.499837	0.490452	0.287582
88	C	0.3844	0.768832	0
89	C	0.389831	0.78465	0.84625
90	C	0.403802	0.810672	0.903453
91	C	0.40851	0.813748	0.098498
92	C	0.422024	0.837237	0.205772
93	C	0.426722	0.840278	0.400018
94	C	0.440678	0.866298	0.45679
95	C	0.446547	0.882957	0.305549
96	C	0.460416	0.910513	0.309783
97	C	0.466185	0.927158	0.158809
98	C	0.480167	0.953138	0.215896
99	C	0.485122	0.956429	0.410256
100	C	0.498582	0.979805	0.51333
101	C	0.50279	0.981599	0.702863
102	C	0.517456	0.008892	0.762855
103	C	0.521228	0.022965	0.576749
104	C	0.534117	0.049828	0.547196
105	C	0.545859	0.068579	0.684342
106	C	0.557077	0.09369	0.6088
107	C	0.553886	0.094099	0.413582
108	C	0.56267	0.116025	0.28938
109	C	0.559415	0.116428	0.094138
110	C	0.570651	0.141543	0.018087
111	C	0.582414	0.160157	0.155764
112	C	0.595677	0.187511	0.130869
113	C	0.607541	0.206216	0.268923
114	C	0.618784	0.231369	0.193208
115	C	0.615069	0.230906	0
116	S	0.598556	0.201211	0.909578
117	S	0.579467	0.146491	0.37597
118	S	0.537184	0.063653	0.326898
119	C	0.510089	0.005517	0.43759
120	S	0.472262	0.927084	0.518546
121	S	0.434818	0.866364	0.096431
122	S	0.395637	0.784495	0.208617
123	H	0.38426	0.77825	0.70066
124	H	0.410032	0.826328	0.803901
125	H	0.420538	0.824665	0.499887
126	H	0.446038	0.872211	0.603573
127	H	0.460743	0.921275	0.012111
128	H	0.48632	0.968795	0.116521
129	H	0.496846	0.966164	0.803266
130	H	0.506427	0.013275	0.864736
131	H	0.535758	0.013283	0.826636
132	H	0.546465	0.06456	0.834477
133	H	0.567022	0.110571	0.69629
134	H	0.549405	0.099534	0.006815
135	H	0.569934	0.145421	0.867816
136	H	0.608275	0.20228	0.419062
137	H	0.628909	0.248546	0.277265
138	H	0.50931	0.009213	0.287582
139	C	0.232046	0.615256	0
140	C	0.216161	0.604899	0.84625
141	C	0.190006	0.592861	0.903453
142	C	0.186901	0.594473	0.098498
143	C	0.163289	0.584504	0.205772
144	C	0.160219	0.586141	0.400018
145	C	0.134066	0.574092	0.45679
146	C	0.117335	0.563331	0.305549
147	C	0.089643	0.549666	0.309783
148	C	0.072927	0.538821	0.158809
149	C	0.046815	0.526837	0.215896
150	C	0.043492	0.52848	0.410256
151	C	0.019994	0.518569	0.51333
152	C	0.018176	0.520961	0.702863
153	C	0.990744	0.50835	0.762855
154	C	0.976615	0.498082	0.576749
155	C	0.949623	0.484134	0.547196
156	C	0.930769	0.477123	0.684342
157	C	0.905539	0.463259	0.6088
158	C	0.905143	0.459684	0.413582
159	C	0.883118	0.446574	0.28938
160	C	0.882728	0.442941	0.094138
161	C	0.857494	0.429091	0.018087
162	C	0.838778	0.422238	0.155764
163	C	0.811291	0.408171	0.130869
164	C	0.792482	0.401327	0.268923
165	C	0.76721	0.387446	0.193208
166	C	0.767692	0.384219	0
167	S	0.79754	0.397388	0.909578
168	S	0.852495	0.432918	0.37597
169	S	0.935746	0.473414	0.326898
170	C	0.99416	0.504394	0.43759
171	S	0.072974	0.544929	0.518546
172	S	0.134026	0.568207	0.096431
173	S	0.216291	0.610818	0.208617
174	H	0.222603	0.605739	0.70066
175	H	0.17428	0.583459	0.803901
176	H	0.175902	0.595547	0.499887
177	H	0.128114	0.573526	0.603573
178	H	0.07885	0.539275	0.012111
179	H	0.031087	0.517356	0.116521
180	H	0.03368	0.530429	0.803266
181	H	0.986397	0.493034	0.864736
182	H	0.986262	0.52215	0.826636
183	H	0.934797	0.481726	0.834477
184	H	0.888568	0.456325	0.69629
185	H	0.899712	0.449822	0.006815
186	H	0.853609	0.424517	0.867816
187	H	0.796427	0.405975	0.419062
188	H	0.749942	0.380397	0.277265
189	H	0.990457	0.499941	0.287582
