data_C90H42N6O6S18_2023-05-13_09:27:14
#******************************************
#
# CIF file created by Zeo++
# Zeo++ is an open source package to
# analyze microporous materials
#
#*******************************************

_cell_length_a		54.0018   
_cell_length_b		54.3003   
_cell_length_c		7   
_cell_angle_alpha		90   
_cell_angle_beta		90   
_cell_angle_gamma		119.76   

_symmetry_space_group_name_H-M		'P1'
_symmetry_Int_Tables_number		1
_symmetry_cell_setting		Monoclinic

loop_
_symmetry_equiv_pos_as_xyz
'+x,+y,+z'

loop_
_atom_site_label
_atom_site_type_symbol
_atom_site_fract_x
_atom_site_fract_y
_atom_site_fract_z
1	C	0.362036	0.67267	0.999995
2	O	0.387201	0.677084	0.999991
3	C	0.339284	0.643171	0.999998
4	C	0.343697	0.621428	0
5	N	0.371866	0.626513	0
6	C	0.310182	0.637935	3e-06
7	O	0.289735	0.612511	5e-06
8	C	0.303195	0.660621	6e-06
9	C	0.276415	0.655147	5e-06
10	N	0.254276	0.62622	0
11	C	0.327042	0.689884	4e-06
12	O	0.32149	0.709502	7e-06
13	C	0.356613	0.696435	0.999999
14	C	0.377635	0.72313	0.999998
15	N	0.373416	0.746828	0
16	H	0.32628	0.600262	1e-06
17	H	0.270769	0.671396	8e-06
18	H	0.398893	0.726942	0.999997
19	C	0.637964	0.32733	0.999995
20	O	0.612799	0.322916	0.999991
21	C	0.660716	0.356829	0.999998
22	C	0.656303	0.378572	0
23	N	0.628134	0.373487	0
24	C	0.689818	0.362065	3e-06
25	O	0.710265	0.387489	5e-06
26	C	0.696805	0.339379	6e-06
27	C	0.723585	0.344853	5e-06
28	N	0.745724	0.37378	0
29	C	0.672958	0.310116	4e-06
30	O	0.67851	0.290498	7e-06
31	C	0.643387	0.303565	0.999999
32	C	0.622365	0.27687	0.999998
33	N	0.626584	0.253172	0
34	H	0.67372	0.399738	1e-06
35	H	0.729231	0.328604	8e-06
36	H	0.601107	0.273058	0.999997
37	C	0.389054	0.609542	0
38	C	0.382271	0.616238	0.173575
39	S	0.394418	0.604244	0.356497
40	C	0.408914	0.589932	0.202692
41	C	0.423579	0.575453	0.273047
42	C	0.428255	0.570833	0.460504
43	C	0.443541	0.55574	0.477024
44	C	0.450439	0.548933	0.302081
45	C	0.465766	0.533801	0.264236
46	C	0.472662	0.526995	0.089289
47	C	0.487948	0.511903	0.10582
48	C	0.492627	0.507281	0.293278
49	C	0.507293	0.492801	0.363468
50	C	0.511983	0.488169	0.550871
51	C	0.52727	0.473076	0.567108
52	C	0.534162	0.466272	0.392071
53	C	0.549569	0.45106	0.359431
54	C	0.56021	0.440556	0.497317
55	C	0.574356	0.426589	0.418631
56	C	0.574442	0.426503	0.221069
57	C	0.58701	0.414093	0.09811
58	C	0.60126	0.400021	0.156214
59	C	0.610946	0.390458	0
60	C	0.604228	0.397093	0.826023
61	S	0.585985	0.415107	0.851962
62	S	0.557152	0.443572	0.135958
63	S	0.521733	0.478544	0.210917
64	S	0.478175	0.521548	0.44577
65	S	0.438031	0.561187	0.120569
66	C	0.40424	0.594548	0.014527
67	H	0.370868	0.627497	0.20289
68	H	0.421143	0.577852	0.583037
69	H	0.449071	0.550278	0.613197
70	H	0.467138	0.532451	0.953079
71	H	0.495066	0.504877	0.98333
72	H	0.504871	0.49519	0.673381
73	H	0.532812	0.467604	0.703098
74	H	0.558111	0.44263	0.649464
75	H	0.583974	0.417094	0.505666
76	H	0.604581	0.396741	0.304421
77	H	0.609019	0.392364	0.68532
78	H	0.411407	0.587473	0.892613
79	C	0.390357	0.78077	0
80	C	0.383672	0.767377	0.173575
81	S	0.395645	0.791363	0.356497
82	C	0.409932	0.819988	0.202692
83	C	0.424385	0.848947	0.273047
84	C	0.428997	0.858183	0.460504
85	C	0.444062	0.888369	0.477024
86	C	0.450858	0.901987	0.302081
87	C	0.465962	0.932251	0.264236
88	C	0.472757	0.945867	0.089289
89	C	0.487821	0.976051	0.10582
90	C	0.492435	0.985292	0.293278
91	C	0.50689	0.014253	0.363468
92	C	0.511513	0.023516	0.550871
93	C	0.526579	0.053702	0.567108
94	C	0.533372	0.067312	0.392071
95	C	0.548556	0.097735	0.359431
96	C	0.559042	0.118746	0.497317
97	C	0.572984	0.146681	0.418631
98	C	0.57307	0.14685	0.221069
99	C	0.585458	0.17167	0.09811
100	C	0.599504	0.199811	0.156214
101	C	0.60905	0.218937	0
102	C	0.602427	0.20567	0.826023
103	S	0.584445	0.169644	0.851962
104	S	0.556031	0.112711	0.135958
105	S	0.521121	0.042768	0.210917
106	S	0.478194	0.956757	0.44577
107	S	0.438626	0.877482	0.120569
108	C	0.405324	0.810757	0.014527
109	H	0.372433	0.744858	0.20289
110	H	0.42199	0.844143	0.583037
111	H	0.449515	0.89929	0.613197
112	H	0.46731	0.934956	0.953079
113	H	0.494835	0.990105	0.98333
114	H	0.504505	0.009473	0.673381
115	H	0.532042	0.064646	0.703098
116	H	0.556971	0.114599	0.649464
117	H	0.582462	0.165671	0.505666
118	H	0.602779	0.20637	0.304421
119	H	0.607148	0.215129	0.68532
120	H	0.412387	0.824909	0.892613
121	C	0.220146	0.609248	0
122	C	0.233613	0.615946	0.173575
123	S	0.209495	0.603953	0.356497
124	C	0.180711	0.58964	0.202692
125	C	0.151593	0.575161	0.273047
126	C	0.142306	0.570544	0.460504
127	C	0.111954	0.555451	0.477024
128	C	0.09826	0.54864	0.302081
129	C	0.067829	0.533508	0.264236
130	C	0.054138	0.526698	0.089289
131	C	0.023788	0.511606	0.10582
132	C	0.014495	0.506987	0.293278
133	C	0.985374	0.492506	0.363468
134	C	0.976061	0.487875	0.550871
135	C	0.945708	0.472782	0.567108
136	C	0.932023	0.465977	0.392071
137	C	0.901432	0.450765	0.359431
138	C	0.880306	0.440259	0.497317
139	C	0.852216	0.426291	0.418631
140	C	0.852046	0.426207	0.221069
141	C	0.827089	0.413798	0.09811
142	C	0.798793	0.399728	0.156214
143	C	0.779561	0.390165	0
144	C	0.792901	0.396797	0.826023
145	S	0.829127	0.41481	0.851962
146	S	0.886374	0.443278	0.135958
147	S	0.956703	0.478248	0.210917
148	S	0.043188	0.521256	0.44577
149	S	0.122901	0.560892	0.120569
150	C	0.189993	0.594255	0.014527
151	H	0.256256	0.627205	0.20289
152	H	0.156424	0.577566	0.583037
153	H	0.100972	0.549991	0.613197
154	H	0.06511	0.532153	0.953079
155	H	0.009656	0.504578	0.98333
156	H	0.990181	0.494897	0.673381
157	H	0.934703	0.46731	0.703098
158	H	0.884475	0.442331	0.649464
159	H	0.833121	0.416795	0.505666
160	H	0.792197	0.396449	0.304421
161	H	0.783391	0.392067	0.68532
162	H	0.175764	0.587179	0.892613
