data_C90H42N6O6S6_2023-05-30_01:52:56
#******************************************
#
# CIF file created by Zeo++
# Zeo++ is an open source package to
# analyze microporous materials
#
#*******************************************

_cell_length_a		41.2524   
_cell_length_b		41.551   
_cell_length_c		7   
_cell_angle_alpha		90   
_cell_angle_beta		90   
_cell_angle_gamma		119.686   

_symmetry_space_group_name_H-M		'P1'
_symmetry_Int_Tables_number		1
_symmetry_cell_setting		Monoclinic

loop_
_symmetry_equiv_pos_as_xyz
'+x,+y,+z'

loop_
_atom_site_label
_atom_site_type_symbol
_atom_site_fract_x
_atom_site_fract_y
_atom_site_fract_z
1	C	0.370895	0.674506	0.999995
2	O	0.403828	0.68027	0.999991
3	C	0.341169	0.635985	0.999998
4	C	0.346988	0.607591	0
5	N	0.383853	0.614231	0
6	C	0.303083	0.629147	3e-06
7	O	0.276365	0.595946	5e-06
8	C	0.293893	0.658772	6e-06
9	C	0.258846	0.651623	5e-06
10	N	0.229921	0.613848	0
11	C	0.325052	0.696986	4e-06
12	O	0.317746	0.722604	7e-06
13	C	0.363749	0.70554	0.999999
14	C	0.391217	0.740401	0.999998
15	N	0.385647	0.771347	0
16	H	0.324229	0.57995	1e-06
17	H	0.251423	0.672843	8e-06
18	H	0.419038	0.745379	0.999997
19	C	0.629105	0.325494	0.999995
20	O	0.596172	0.31973	0.999991
21	C	0.658831	0.364015	0.999998
22	C	0.653012	0.392409	0
23	N	0.616147	0.385769	0
24	C	0.696917	0.370853	3e-06
25	O	0.723635	0.404054	5e-06
26	C	0.706107	0.341228	6e-06
27	C	0.741154	0.348377	5e-06
28	N	0.770079	0.386152	0
29	C	0.674948	0.303014	4e-06
30	O	0.682254	0.277396	7e-06
31	C	0.636251	0.29446	0.999999
32	C	0.608783	0.259599	0.999998
33	N	0.614353	0.228653	0
34	H	0.675771	0.42005	1e-06
35	H	0.748577	0.327157	8e-06
36	H	0.580962	0.254621	0.999997
37	C	0.593613	0.407931	0
38	C	0.559421	0.378803	0.049156
39	C	0.53035	0.387144	0.011939
40	C	0.543838	0.42226	0.936664
41	C	0.523068	0.440904	0.879973
42	C	0.513756	0.43972	0.686562
43	C	0.493586	0.45639	0.623779
44	C	0.482181	0.474496	0.752934
45	C	0.461926	0.491157	0.689281
46	C	0.450411	0.509264	0.817083
47	C	0.45865	0.511452	0.013772
48	C	0.447386	0.529669	0.148099
49	C	0.425387	0.547089	0.092575
50	C	0.38725	0.530789	0.066343
51	C	0.376169	0.557046	0.012034
52	C	0.406387	0.592069	0
53	S	0.447376	0.593943	0.052372
54	C	0.456694	0.530849	0.341513
55	C	0.47705	0.514365	0.40412
56	C	0.488441	0.496245	0.274978
57	C	0.508837	0.479725	0.338497
58	C	0.520304	0.46157	0.210741
59	C	0.511845	0.459162	0.01426
60	C	0.49118	0.476042	0.949081
61	C	0.479355	0.494612	0.078915
62	S	0.591425	0.444701	0.910769
63	H	0.555138	0.3529	0.108287
64	H	0.501009	0.368373	0.039168
65	H	0.522246	0.425713	0.583447
66	H	0.486856	0.455068	0.472689
67	H	0.454871	0.490348	0.538926
68	H	0.434863	0.521929	0.759667
69	H	0.368239	0.501402	0.085047
70	H	0.347671	0.550302	0.984043
71	H	0.448061	0.544714	0.444765
72	H	0.483914	0.51582	0.555082
73	H	0.516178	0.480818	0.488581
74	H	0.536288	0.449339	0.267743
75	C	0.591465	0.183946	0
76	C	0.620927	0.17905	0.049156
77	C	0.612736	0.14199	0.011939
78	C	0.577392	0.120445	0.936664
79	C	0.558802	0.081362	0.879973
80	C	0.56005	0.073323	0.686562
81	C	0.54344	0.036796	0.623779
82	C	0.525331	0.007516	0.752934
83	C	0.508731	0.970915	0.689281
84	C	0.490622	0.941526	0.817083
85	C	0.488373	0.947505	0.013772
86	C	0.470154	0.918255	0.148099
87	C	0.4528	0.879172	0.092575
88	C	0.469408	0.857626	0.066343
89	C	0.443113	0.820567	0.012034
90	C	0.407758	0.815672	0
91	S	0.405617	0.854376	0.052372
92	C	0.468909	0.926294	0.341513
93	C	0.485333	0.962821	0.40412
94	C	0.503455	0.992101	0.274978
95	C	0.519913	0.028702	0.338497
96	C	0.53807	0.058091	0.210741
97	C	0.540541	0.052112	0.01426
98	C	0.523723	0.014887	0.949081
99	C	0.505152	0.984731	0.078915
100	S	0.554559	0.145242	0.910769
101	H	0.646963	0.200552	0.108287
102	H	0.631769	0.131604	0.039168
103	H	0.574061	0.095644	0.583447
104	H	0.544809	0.031449	0.472689
105	H	0.509587	0.964736	0.538926
106	H	0.478004	0.913552	0.759667
107	H	0.499034	0.868011	0.085047
108	H	0.450065	0.799065	0.984043
109	H	0.455043	0.903973	0.444765
110	H	0.483828	0.968168	0.555082
111	H	0.51877	0.034881	0.488581
112	H	0.550251	0.086065	0.267743
113	C	0.814342	0.407548	0
114	C	0.819072	0.441572	0.049156
115	C	0.856334	0.470291	0.011939
116	C	0.87819	0.45672	0.936664
117	C	0.91755	0.477159	0.879973
118	C	0.925614	0.486383	0.686562
119	C	0.962395	0.50624	0.623779
120	C	0.991908	0.517413	0.752934
121	C	0.028763	0.537354	0.689281
122	C	0.058387	0.548636	0.817083
123	C	0.052397	0.540469	0.013772
124	C	0.081881	0.551502	0.148099
125	C	0.121233	0.573165	0.092575
126	C	0.142762	0.611011	0.066343
127	C	0.180138	0.621813	0.012034
128	C	0.185276	0.591686	0
129	S	0.146428	0.551107	0.052372
130	C	0.073817	0.542282	0.341513
131	C	0.037037	0.52224	0.40412
132	C	0.007524	0.51108	0.274978
133	C	0.97067	0.490999	0.338497
134	C	0.941046	0.479765	0.210741
135	C	0.947034	0.488151	0.01426
136	C	0.984518	0.508498	0.949081
137	C	0.014914	0.520084	0.078915
138	S	0.853436	0.409482	0.910769
139	H	0.797319	0.445974	0.108287
140	H	0.866643	0.499449	0.039168
141	H	0.903114	0.478069	0.583447
142	H	0.967755	0.512909	0.472689
143	H	0.034962	0.544342	0.538926
144	H	0.086554	0.563945	0.759667
145	H	0.132147	0.630012	0.085047
146	H	0.201684	0.65006	0.984043
147	H	0.096317	0.550739	0.444765
148	H	0.031678	0.515437	0.555082
149	H	0.964473	0.483727	0.488581
150	H	0.912882	0.464022	0.267743
