data_C90H36N12O6S18_2023-05-11_08:24:12
#******************************************
#
# CIF file created by Zeo++
# Zeo++ is an open source package to
# analyze microporous materials
#
#*******************************************

_cell_length_a		50.3298   
_cell_length_b		50.6283   
_cell_length_c		7   
_cell_angle_alpha		90   
_cell_angle_beta		90   
_cell_angle_gamma		119.742   

_symmetry_space_group_name_H-M		'P1'
_symmetry_Int_Tables_number		1
_symmetry_cell_setting		Monoclinic

loop_
_symmetry_equiv_pos_as_xyz
'+x,+y,+z'

loop_
_atom_site_label
_atom_site_type_symbol
_atom_site_fract_x
_atom_site_fract_y
_atom_site_fract_z
1	C	0.364128	0.673104	0.999995
2	O	0.391127	0.677837	0.999991
3	C	0.339727	0.641472	0.999998
4	C	0.34447	0.618156	0
5	N	0.374692	0.623608	0
6	C	0.308504	0.635857	3e-06
7	O	0.286574	0.608593	5e-06
8	C	0.300999	0.660184	6e-06
9	C	0.272266	0.654313	5e-06
10	N	0.248523	0.623294	0
11	C	0.326574	0.691564	4e-06
12	O	0.32061	0.712601	7e-06
13	C	0.3583	0.698588	0.999999
14	C	0.380846	0.727215	0.999998
15	N	0.37631	0.752627	0
16	H	0.32579	0.595458	1e-06
17	H	0.266202	0.671738	8e-06
18	H	0.403654	0.731303	0.999997
19	C	0.635872	0.326896	0.999995
20	O	0.608873	0.322163	0.999991
21	C	0.660273	0.358528	0.999998
22	C	0.65553	0.381844	0
23	N	0.625308	0.376392	0
24	C	0.691496	0.364143	3e-06
25	O	0.713426	0.391407	5e-06
26	C	0.699001	0.339816	6e-06
27	C	0.727734	0.345687	5e-06
28	N	0.751477	0.376706	0
29	C	0.673426	0.308436	4e-06
30	O	0.67939	0.287399	7e-06
31	C	0.6417	0.301412	0.999999
32	C	0.619154	0.272785	0.999998
33	N	0.62369	0.247373	0
34	H	0.67421	0.404542	1e-06
35	H	0.733798	0.328262	8e-06
36	H	0.596346	0.268697	0.999997
37	C	0.393141	0.605409	0
38	C	0.406368	0.592362	0.107632
39	C	0.402965	0.595719	0.30745
40	C	0.415339	0.583513	0.472465
41	C	0.431048	0.568016	0.442378
42	C	0.439558	0.559622	0.617111
43	C	0.457716	0.54171	0.626783
44	N	0.465988	0.533551	0.469199
45	C	0.481516	0.518233	0.513906
46	C	0.493752	0.506163	0.383283
47	C	0.508967	0.491155	0.447826
48	C	0.512376	0.487792	0.642406
49	C	0.50014	0.499862	0.773023
50	C	0.484926	0.51487	0.708477
51	S	0.467991	0.531575	0.836012
52	N	0.527904	0.472474	0.687113
53	C	0.536172	0.464318	0.529547
54	C	0.554334	0.446403	0.536986
55	C	0.562186	0.438658	0.708058
56	S	0.581713	0.419396	0.67549
57	C	0.579835	0.421248	0.432398
58	C	0.593849	0.407424	0.288743
59	C	0.609054	0.392425	0.347344
60	S	0.621623	0.380027	0.158175
61	C	0.606859	0.394591	0
62	C	0.592601	0.408655	0.085108
63	C	0.56456	0.436316	0.377137
64	S	0.525902	0.474449	0.320268
65	C	0.430014	0.569037	0.774298
66	S	0.410957	0.587835	0.710522
67	C	0.387271	0.6112	0.340774
68	S	0.376823	0.621506	0.13273
69	H	0.41783	0.581055	0.046498
70	H	0.436445	0.562693	0.302859
71	H	0.491203	0.508677	0.231307
72	H	0.502689	0.497347	0.925005
73	H	0.557371	0.443407	0.850688
74	H	0.613582	0.387959	0.49127
75	H	0.581901	0.419209	0.005623
76	H	0.560843	0.439982	0.229586
77	H	0.433089	0.566003	0.92398
78	H	0.381255	0.617134	0.476063
79	C	0.394474	0.789024	0
80	C	0.407497	0.81512	0.107632
81	C	0.404146	0.808406	0.30745
82	C	0.416329	0.832817	0.472465
83	C	0.431795	0.86381	0.442378
84	C	0.440174	0.880599	0.617111
85	C	0.458051	0.916423	0.626783
86	N	0.466195	0.932741	0.469199
87	C	0.481484	0.963377	0.513906
88	C	0.49353	0.987517	0.383283
89	C	0.50851	0.017533	0.447826
90	C	0.511867	0.02426	0.642406
91	C	0.49982	0.00012	0.773023
92	C	0.48484	0.970104	0.708477
93	S	0.468168	0.936694	0.836012
94	N	0.527155	0.054894	0.687113
95	C	0.535295	0.071207	0.529547
96	C	0.553177	0.107037	0.536986
97	C	0.560907	0.122527	0.708058
98	S	0.580132	0.161052	0.67549
99	C	0.578284	0.157348	0.432398
100	C	0.59208	0.184994	0.288743
101	C	0.607051	0.214993	0.347344
102	S	0.619426	0.239789	0.158175
103	C	0.604889	0.210661	0
104	C	0.590852	0.182533	0.085108
105	C	0.563244	0.127211	0.377137
106	S	0.525184	0.050945	0.320268
107	C	0.430777	0.861769	0.774298
108	S	0.412014	0.824172	0.710522
109	C	0.388694	0.777443	0.340774
110	S	0.378408	0.756831	0.13273
111	H	0.418781	0.837733	0.046498
112	H	0.437109	0.874457	0.302859
113	H	0.491021	0.982489	0.231307
114	H	0.502329	0.005148	0.925005
115	H	0.556166	0.113028	0.850688
116	H	0.611509	0.223926	0.49127
117	H	0.580318	0.161424	0.005623
118	H	0.559585	0.119879	0.229586
119	H	0.433805	0.867836	0.92398
120	H	0.382772	0.765576	0.476063
121	C	0.21191	0.605095	0
122	C	0.18566	0.592047	0.107632
123	C	0.192414	0.595404	0.30745
124	C	0.167858	0.583198	0.472465
125	C	0.136681	0.567702	0.442378
126	C	0.119793	0.559307	0.617111
127	C	0.083757	0.541395	0.626783
128	N	0.067342	0.533236	0.469199
129	C	0.036525	0.517919	0.513906
130	C	0.012243	0.505849	0.383283
131	C	0.982048	0.49084	0.447826
132	C	0.975282	0.487477	0.642406
133	C	0.999565	0.499547	0.773023
134	C	0.029759	0.514555	0.708477
135	S	0.063366	0.53126	0.836012
136	N	0.944466	0.47216	0.687113
137	C	0.928057	0.464004	0.529547
138	C	0.892014	0.446088	0.536986
139	C	0.876433	0.438343	0.708058
140	S	0.83768	0.419081	0.67549
141	C	0.841406	0.420933	0.432398
142	C	0.813596	0.40711	0.288743
143	C	0.783419	0.39211	0.347344
144	S	0.758476	0.379712	0.158175
145	C	0.787777	0.394276	0
146	C	0.816071	0.40834	0.085108
147	C	0.871721	0.436001	0.377137
148	S	0.948439	0.474135	0.320268
149	C	0.138734	0.568722	0.774298
150	S	0.176554	0.587521	0.710522
151	C	0.22356	0.610885	0.340774
152	S	0.244294	0.621192	0.13273
153	H	0.162913	0.580741	0.046498
154	H	0.125971	0.562378	0.302859
155	H	0.0173	0.508363	0.231307
156	H	0.994506	0.497033	0.925005
157	H	0.885988	0.443093	0.850688
158	H	0.774434	0.387644	0.49127
159	H	0.837306	0.418895	0.005623
160	H	0.879096	0.439667	0.229586
161	H	0.132631	0.565689	0.92398
162	H	0.235497	0.616819	0.476063
