data_C60H24N18O6S6_2023-05-12_01:48:04
#******************************************
#
# CIF file created by Zeo++
# Zeo++ is an open source package to
# analyze microporous materials
#
#*******************************************

_cell_length_a		40.7142   
_cell_length_b		41.0128   
_cell_length_c		7   
_cell_angle_alpha		90   
_cell_angle_beta		90   
_cell_angle_gamma		119.682   

_symmetry_space_group_name_H-M		'P1'
_symmetry_Int_Tables_number		1
_symmetry_cell_setting		Monoclinic

loop_
_symmetry_equiv_pos_as_xyz
'+x,+y,+z'

loop_
_atom_site_label
_atom_site_type_symbol
_atom_site_fract_x
_atom_site_fract_y
_atom_site_fract_z
1	C	0.371391	0.674608	0.999995
2	O	0.404759	0.680448	0.999991
3	C	0.341275	0.635583	0.999998
4	C	0.347173	0.606818	0
5	N	0.384525	0.613545	0
6	C	0.302686	0.628656	3e-06
7	O	0.275618	0.595021	5e-06
8	C	0.293372	0.658669	6e-06
9	C	0.257862	0.651426	5e-06
10	N	0.228558	0.613157	0
11	C	0.32494	0.697382	4e-06
12	O	0.317535	0.723336	7e-06
13	C	0.364148	0.706048	0.999999
14	C	0.391975	0.741366	0.999998
15	N	0.38633	0.772716	0
16	H	0.324116	0.578816	1e-06
17	H	0.25034	0.672923	8e-06
18	H	0.420164	0.746409	0.999997
19	C	0.628609	0.325392	0.999995
20	O	0.595241	0.319552	0.999991
21	C	0.658725	0.364417	0.999998
22	C	0.652827	0.393182	0
23	N	0.615475	0.386455	0
24	C	0.697314	0.371344	3e-06
25	O	0.724382	0.404979	5e-06
26	C	0.706628	0.341331	6e-06
27	C	0.742138	0.348574	5e-06
28	N	0.771442	0.386843	0
29	C	0.67506	0.302618	4e-06
30	O	0.682465	0.276664	7e-06
31	C	0.635852	0.293952	0.999999
32	C	0.608025	0.258634	0.999998
33	N	0.61367	0.227284	0
34	H	0.675884	0.421184	1e-06
35	H	0.74966	0.327077	8e-06
36	H	0.579836	0.253591	0.999997
37	C	0.592641	0.408907	0
38	C	0.581238	0.420122	0.838206
39	N	0.56187	0.43917	0.846217
40	C	0.554032	0.446875	0.023888
41	C	0.532986	0.467569	0.025904
42	C	0.520959	0.479395	0.868742
43	C	0.501352	0.498674	0.922986
44	C	0.498802	0.50118	0.115589
45	C	0.479182	0.520471	0.170549
46	C	0.467124	0.532327	0.013596
47	C	0.446046	0.553052	0.009782
48	N	0.437557	0.561401	0.835523
49	C	0.418178	0.580458	0.834261
50	C	0.407359	0.591093	0
51	N	0.415557	0.583027	0.174616
52	C	0.434961	0.56395	0.175198
53	S	0.479742	0.519925	0.801212
54	S	0.52044	0.479902	0.237711
55	C	0.565679	0.435419	0.185367
56	N	0.585076	0.416346	0.177413
57	H	0.58727	0.41419	0.695527
58	H	0.52594	0.474497	0.722135
59	H	0.474582	0.524994	0.318166
60	H	0.411665	0.586866	0.693733
61	H	0.441252	0.557763	0.316678
62	H	0.559957	0.441046	0.329292
63	C	0.590484	0.181992	0
64	C	0.579295	0.159564	0.838206
65	N	0.560293	0.121472	0.846217
66	C	0.552605	0.10606	0.023888
67	C	0.53196	0.064672	0.025904
68	C	0.520163	0.04102	0.868742
69	C	0.500929	0.002462	0.922986
70	C	0.498429	0.997449	0.115589
71	C	0.479183	0.958865	0.170549
72	C	0.467355	0.935152	0.013596
73	C	0.44668	0.893702	0.009782
74	N	0.438351	0.877006	0.835523
75	C	0.419338	0.838894	0.834261
76	C	0.408729	0.817621	0
77	N	0.416775	0.833748	0.174616
78	C	0.435808	0.871905	0.175198
79	S	0.479728	0.959962	0.801212
80	S	0.519657	0.040003	0.237711
81	C	0.564034	0.128968	0.185367
82	N	0.583063	0.167114	0.177413
83	H	0.585213	0.171427	0.695527
84	H	0.525049	0.050816	0.722135
85	H	0.474672	0.94982	0.318166
86	H	0.412946	0.826082	0.693733
87	H	0.44198	0.884277	0.316678
88	H	0.558421	0.117715	0.329292
89	C	0.816288	0.408519	0
90	C	0.83888	0.419732	0.838206
91	N	0.87725	0.438776	0.846217
92	C	0.892775	0.446483	0.023888
93	C	0.934467	0.467177	0.025904
94	C	0.958291	0.479003	0.868742
95	C	0.997131	0.498283	0.922986
96	C	0.002181	0.50079	0.115589
97	C	0.041047	0.520082	0.170549
98	C	0.064934	0.531939	0.013596
99	C	0.106687	0.552664	0.009782
100	N	0.123505	0.561011	0.835523
101	C	0.161897	0.580066	0.834261
102	C	0.183325	0.590705	0
103	N	0.16708	0.582643	0.174616
104	C	0.128644	0.563564	0.175198
105	S	0.039943	0.519532	0.801212
106	S	0.959316	0.479514	0.237711
107	C	0.869699	0.435031	0.185367
108	N	0.831274	0.415958	0.177413
109	H	0.82693	0.413801	0.695527
110	H	0.948424	0.474105	0.722135
111	H	0.050159	0.524605	0.318166
112	H	0.174802	0.58647	0.693733
113	H	0.116181	0.557378	0.316678
114	H	0.881035	0.440658	0.329292
