data_C60H24N6O6S12_2023-05-23_20:40:23
#******************************************
#
# CIF file created by Zeo++
# Zeo++ is an open source package to
# analyze microporous materials
#
#*******************************************

_cell_length_a		38.043   
_cell_length_b		38.3416   
_cell_length_c		7   
_cell_angle_alpha		90   
_cell_angle_beta		90   
_cell_angle_gamma		119.66   

_symmetry_space_group_name_H-M		'P1'
_symmetry_Int_Tables_number		1
_symmetry_cell_setting		Monoclinic

loop_
_symmetry_equiv_pos_as_xyz
'+x,+y,+z'

loop_
_atom_site_label
_atom_site_type_symbol
_atom_site_fract_x
_atom_site_fract_y
_atom_site_fract_z
1	C	0.374059	0.67516	0.999995
2	O	0.409767	0.681405	0.999991
3	C	0.341847	0.633425	0.999998
4	C	0.348174	0.602663	0
5	N	0.388145	0.609857	0
6	C	0.300553	0.626017	3e-06
7	O	0.2716	0.590046	5e-06
8	C	0.29057	0.658114	6e-06
9	C	0.25257	0.650368	5e-06
10	N	0.221227	0.609442	0
11	C	0.324336	0.699515	4e-06
12	O	0.316399	0.727271	7e-06
13	C	0.366293	0.708783	0.999999
14	C	0.396057	0.746552	0.999998
15	N	0.39	0.78008	0
16	H	0.323511	0.572716	1e-06
17	H	0.24451	0.673358	8e-06
18	H	0.426222	0.751945	0.999997
19	C	0.625941	0.32484	0.999995
20	O	0.590233	0.318595	0.999991
21	C	0.658153	0.366575	0.999998
22	C	0.651826	0.397337	0
23	N	0.611855	0.390143	0
24	C	0.699447	0.373983	3e-06
25	O	0.7284	0.409954	5e-06
26	C	0.70943	0.341886	6e-06
27	C	0.74743	0.349632	5e-06
28	N	0.778773	0.390558	0
29	C	0.675664	0.300485	4e-06
30	O	0.683601	0.272729	7e-06
31	C	0.633707	0.291217	0.999999
32	C	0.603943	0.253448	0.999998
33	N	0.61	0.21992	0
34	H	0.676489	0.427284	1e-06
35	H	0.75549	0.326642	8e-06
36	H	0.573778	0.248055	0.999997
37	C	0.412592	0.585846	0
38	C	0.420889	0.577697	0.179617
39	C	0.442731	0.556245	0.171758
40	C	0.450091	0.549017	0.986832
41	C	0.473336	0.526188	0.925315
42	C	0.479355	0.520276	0.736921
43	S	0.505156	0.494936	0.70369
44	C	0.509155	0.491009	0.950916
45	C	0.490845	0.508991	0.049084
46	S	0.494844	0.505064	0.29631
47	C	0.520645	0.479724	0.263079
48	C	0.526664	0.473812	0.074685
49	C	0.549908	0.450983	0.013168
50	C	0.557269	0.443754	0.828242
51	C	0.57911	0.422303	0.820383
52	C	0.587408	0.414154	0
53	S	0.569649	0.431595	0.175317
54	S	0.430351	0.568405	0.824683
55	H	0.412049	0.58638	0.310408
56	H	0.452109	0.547035	0.298729
57	H	0.469721	0.529738	0.611388
58	H	0.530279	0.470263	0.388612
59	H	0.54789	0.452965	0.701271
60	H	0.587951	0.41362	0.689592
61	C	0.41395	0.828102	0
62	C	0.422078	0.844399	0.179617
63	C	0.443476	0.887302	0.171758
64	C	0.450686	0.90176	0.986832
65	C	0.473457	0.947417	0.925315
66	C	0.479354	0.959241	0.736921
67	S	0.50463	0.009921	0.70369
68	C	0.508547	0.017776	0.950916
69	C	0.49061	0.98181	0.049084
70	S	0.494527	0.989664	0.29631
71	C	0.519803	0.040344	0.263079
72	C	0.5257	0.052168	0.074685
73	C	0.548471	0.097826	0.013168
74	C	0.555682	0.112284	0.828242
75	C	0.577079	0.155187	0.820383
76	C	0.585207	0.171484	0
77	S	0.56781	0.136603	0.175317
78	S	0.431347	0.862983	0.824683
79	H	0.413418	0.827033	0.310408
80	H	0.452663	0.905723	0.298729
81	H	0.469916	0.940318	0.611388
82	H	0.529241	0.059268	0.388612
83	H	0.546494	0.093863	0.701271
84	H	0.58574	0.172552	0.689592
85	C	0.172829	0.585431	0
86	C	0.156404	0.577282	0.179617
87	C	0.113165	0.555831	0.171758
88	C	0.098594	0.548602	0.986832
89	C	0.052579	0.525773	0.925315
90	C	0.040662	0.519861	0.736921
91	S	0.989586	0.494521	0.70369
92	C	0.98167	0.490594	0.950916
93	C	0.017917	0.508576	0.049084
94	S	0.010001	0.504649	0.29631
95	C	0.958924	0.479309	0.263079
96	C	0.947008	0.473397	0.074685
97	C	0.900992	0.450568	0.013168
98	C	0.886421	0.44334	0.828242
99	C	0.843182	0.421888	0.820383
100	C	0.826757	0.413739	0
101	S	0.861912	0.43118	0.175317
102	S	0.137674	0.56799	0.824683
103	H	0.173906	0.585965	0.310408
104	H	0.094599	0.54662	0.298729
105	H	0.059734	0.529323	0.611388
106	H	0.939852	0.469848	0.388612
107	H	0.904987	0.45255	0.701271
108	H	0.825681	0.413206	0.689592
