data_C81H42N6O6S12_2023-05-13_10:52:06
#******************************************
#
# CIF file created by Zeo++
# Zeo++ is an open source package to
# analyze microporous materials
#
#*******************************************

_cell_length_a		43.227   
_cell_length_b		43.5255   
_cell_length_c		7   
_cell_angle_alpha		90   
_cell_angle_beta		90   
_cell_angle_gamma		119.7   

_symmetry_space_group_name_H-M		'P1'
_symmetry_Int_Tables_number		1
_symmetry_cell_setting		Monoclinic

loop_
_symmetry_equiv_pos_as_xyz
'+x,+y,+z'

loop_
_atom_site_label
_atom_site_type_symbol
_atom_site_fract_x
_atom_site_fract_y
_atom_site_fract_z
1	C	0.369182	0.674151	0.999995
2	O	0.400612	0.679655	0.999991
3	C	0.340802	0.637372	0.999998
4	C	0.346348	0.610263	0
5	N	0.38153	0.616603	0
6	C	0.304455	0.630844	3e-06
7	O	0.278948	0.599145	5e-06
8	C	0.295692	0.659129	6e-06
9	C	0.262244	0.652304	5e-06
10	N	0.23463	0.616237	0
11	C	0.325439	0.695614	4e-06
12	O	0.318474	0.720074	7e-06
13	C	0.362371	0.703782	0.999999
14	C	0.388593	0.737066	0.999998
15	N	0.383286	0.766612	0
16	H	0.324621	0.583872	1e-06
17	H	0.255167	0.672563	8e-06
18	H	0.415144	0.741819	0.999997
19	C	0.630818	0.325849	0.999995
20	O	0.599388	0.320345	0.999991
21	C	0.659198	0.362628	0.999998
22	C	0.653652	0.389737	0
23	N	0.61847	0.383397	0
24	C	0.695545	0.369156	3e-06
25	O	0.721052	0.400855	5e-06
26	C	0.704308	0.340871	6e-06
27	C	0.737756	0.347696	5e-06
28	N	0.76537	0.383763	0
29	C	0.674561	0.304386	4e-06
30	O	0.681526	0.279926	7e-06
31	C	0.637629	0.296218	0.999999
32	C	0.611407	0.262934	0.999998
33	N	0.616714	0.233388	0
34	H	0.675379	0.416128	1e-06
35	H	0.744833	0.327437	8e-06
36	H	0.584856	0.258181	0.999997
37	C	0.403029	0.595443	0
38	C	0.420831	0.582244	0.897612
39	C	0.433528	0.564581	0.019681
40	C	0.424959	0.564951	0.210474
41	C	0.433451	0.549727	0.372731
42	C	0.42493	0.550118	0.562583
43	C	0.437658	0.532444	0.683951
44	C	0.455904	0.518535	0.587188
45	C	0.472396	0.499302	0.657564
46	C	0.472198	0.491572	0.843772
47	C	0.491461	0.471304	0.874374
48	C	0.503091	0.468346	0.674859
49	C	0.522744	0.451461	0.6171
50	C	0.535259	0.434245	0.733242
51	C	0.553991	0.420126	0.631498
52	C	0.555777	0.426573	0.437324
53	C	0.572874	0.415794	0.294564
54	C	0.590608	0.396997	0.326394
55	C	0.604577	0.390473	0.155853
56	C	0.596971	0.404557	0
57	S	0.573702	0.425144	0.054537
58	S	0.534422	0.449827	0.383906
59	C	0.49157	0.484782	0.555177
60	S	0.456898	0.527698	0.346839
61	S	0.401354	0.587086	0.236634
62	H	0.424747	0.584866	0.744406
63	H	0.448335	0.5522	0.967692
64	H	0.410149	0.562479	0.615105
65	H	0.433392	0.530196	0.836943
66	H	0.460225	0.498441	0.9593
67	H	0.514385	0.485841	0.96885
68	H	0.473582	0.445198	0.935009
69	H	0.5312	0.431763	0.88646
70	H	0.565534	0.405873	0.700232
71	H	0.59363	0.388109	0.466063
72	H	0.619241	0.376285	0.150162
73	H	0.495459	0.487461	0.402355
74	C	0.404399	0.808932	0
75	C	0.417542	0.839677	0.897612
76	C	0.435197	0.869807	0.019681
77	C	0.434878	0.860955	0.210474
78	C	0.450109	0.884495	0.372731
79	C	0.449768	0.875669	0.562583
80	C	0.467435	0.90584	0.683951
81	C	0.481288	0.937732	0.587188
82	C	0.500496	0.973178	0.657564
83	C	0.508258	0.980666	0.843772
84	C	0.528488	0.019885	0.874374
85	C	0.531388	0.034341	0.674859
86	C	0.54822	0.070584	0.6171
87	C	0.565427	0.100088	0.733242
88	C	0.579489	0.13267	0.631498
89	C	0.573006	0.128031	0.437324
90	C	0.583724	0.155674	0.294564
91	C	0.602487	0.191917	0.326394
92	C	0.608953	0.212234	0.155853
93	C	0.594859	0.190703	0
94	S	0.574333	0.1472	0.054537
95	S	0.54979	0.083772	0.383906
96	C	0.514957	0.006596	0.555177
97	S	0.472083	0.929608	0.346839
98	S	0.412798	0.81558	0.236634
99	H	0.414886	0.84095	0.744406
100	H	0.447537	0.896775	0.967692
101	H	0.437448	0.848748	0.615105
102	H	0.469717	0.90385	0.836943
103	H	0.501434	0.961983	0.9593
104	H	0.513756	0.028135	0.96885
105	H	0.554803	0.028131	0.935009
106	H	0.567944	0.098537	0.88646
107	H	0.593728	0.158267	0.700232
108	H	0.611392	0.203744	0.466063
109	H	0.623108	0.240856	0.150162
110	H	0.512244	0.007785	0.402355
111	C	0.192019	0.595077	0
112	C	0.161075	0.57753	0.897612
113	C	0.130721	0.565064	0.019681
114	C	0.13961	0.573546	0.210474
115	C	0.115887	0.565229	0.372731
116	C	0.124749	0.573664	0.562583
117	C	0.094354	0.561168	0.683951
118	C	0.062255	0.543185	0.587188
119	C	0.026555	0.526971	0.657564
120	C	0.018991	0.527214	0.843772
121	C	0.979498	0.508262	0.874374
122	C	0.964969	0.496765	0.674859
123	C	0.928483	0.477407	0.6171
124	C	0.898761	0.465118	0.733242
125	C	0.865967	0.446656	0.631498
126	C	0.870664	0.444848	0.437324
127	C	0.842849	0.427984	0.294564
128	C	0.806352	0.410538	0.326394
129	C	0.785917	0.396745	0.155853
130	C	0.807616	0.404192	0
131	S	0.851412	0.427108	0.054537
132	S	0.915235	0.465853	0.383906
133	C	0.99292	0.508073	0.555177
134	S	0.070466	0.542146	0.346839
135	S	0.185294	0.596786	0.236634
136	H	0.159813	0.573636	0.744406
137	H	0.103575	0.550477	0.967692
138	H	0.151849	0.588225	0.615105
139	H	0.096338	0.565406	0.836943
140	H	0.037789	0.539028	0.9593
141	H	0.971305	0.485476	0.96885
142	H	0.971061	0.526122	0.935009
143	H	0.900303	0.469151	0.88646
144	H	0.840185	0.435312	0.700232
145	H	0.794425	0.407598	0.466063
146	H	0.757098	0.38231	0.150162
147	H	0.991743	0.504206	0.402355
