data_C72H36N12O6S6_2023-05-13_19:02:09
#******************************************
#
# CIF file created by Zeo++
# Zeo++ is an open source package to
# analyze microporous materials
#
#*******************************************

_cell_length_a		44.0061   
_cell_length_b		44.3046   
_cell_length_c		7   
_cell_angle_alpha		90   
_cell_angle_beta		90   
_cell_angle_gamma		119.706   

_symmetry_space_group_name_H-M		'P1'
_symmetry_Int_Tables_number		1
_symmetry_cell_setting		Monoclinic

loop_
_symmetry_equiv_pos_as_xyz
'+x,+y,+z'

loop_
_atom_site_label
_atom_site_type_symbol
_atom_site_fract_x
_atom_site_fract_y
_atom_site_fract_z
1	C	0.368548	0.67402	0.999995
2	O	0.399422	0.679427	0.999991
3	C	0.340667	0.637886	0.999998
4	C	0.346112	0.611252	0
5	N	0.380672	0.61748	0
6	C	0.304962	0.631472	3e-06
7	O	0.279904	0.600329	5e-06
8	C	0.296358	0.659261	6e-06
9	C	0.263501	0.652555	5e-06
10	N	0.236372	0.617121	0
11	C	0.325582	0.695107	4e-06
12	O	0.318742	0.719138	7e-06
13	C	0.36186	0.703131	0.999999
14	C	0.387622	0.735832	0.999998
15	N	0.382412	0.76486	0
16	H	0.324767	0.585324	1e-06
17	H	0.256551	0.67246	8e-06
18	H	0.413704	0.740501	0.999997
19	C	0.631452	0.32598	0.999995
20	O	0.600578	0.320573	0.999991
21	C	0.659333	0.362114	0.999998
22	C	0.653888	0.388748	0
23	N	0.619328	0.38252	0
24	C	0.695038	0.368528	3e-06
25	O	0.720096	0.399671	5e-06
26	C	0.703642	0.340739	6e-06
27	C	0.736499	0.347445	5e-06
28	N	0.763628	0.382879	0
29	C	0.674418	0.304893	4e-06
30	O	0.681258	0.280862	7e-06
31	C	0.63814	0.296869	0.999999
32	C	0.612378	0.264168	0.999998
33	N	0.617588	0.23514	0
34	H	0.675233	0.414676	1e-06
35	H	0.743449	0.32754	8e-06
36	H	0.586296	0.259499	0.999997
37	C	0.401788	0.596692	0
38	C	0.403583	0.594872	0.194432
39	C	0.421769	0.576957	0.24794
40	C	0.433257	0.56569	0.092877
41	C	0.452787	0.546467	0.091293
42	C	0.462475	0.536939	0.261238
43	C	0.480982	0.518722	0.259021
44	C	0.490021	0.509816	0.085559
45	C	0.509657	0.490487	0.068973
46	C	0.521082	0.479245	0.225168
47	C	0.539405	0.461211	0.19646
48	C	0.546526	0.454199	0.012334
49	C	0.565694	0.435335	0.971764
50	C	0.574331	0.426869	0.796401
51	C	0.593121	0.408363	0.812581
52	C	0.598212	0.403308	0
53	S	0.581053	0.420168	0.154026
54	C	0.534153	0.466373	0.865418
55	N	0.516368	0.483878	0.8891
56	N	0.480807	0.518877	0.919154
57	C	0.462882	0.536522	0.925232
58	S	0.421286	0.577534	0.88298
59	H	0.392643	0.605613	0.29418
60	H	0.426028	0.572722	0.39551
61	H	0.455935	0.543383	0.399309
62	H	0.487852	0.511967	0.394805
63	H	0.516258	0.483997	0.370881
64	H	0.547803	0.452951	0.322346
65	H	0.567632	0.433498	0.659796
66	H	0.602159	0.399491	0.692605
67	H	0.538036	0.462547	0.716092
68	H	0.456956	0.542345	0.783887
69	C	0.403156	0.806438	0
70	C	0.404971	0.810024	0.194432
71	C	0.422848	0.845844	0.24794
72	C	0.43409	0.868421	0.092877
73	C	0.453271	0.906872	0.091293
74	C	0.462778	0.925938	0.261238
75	C	0.480955	0.962376	0.259021
76	C	0.489842	0.980181	0.085559
77	C	0.509128	0.018841	0.068973
78	C	0.520345	0.04133	0.225168
79	C	0.53834	0.077405	0.19646
80	C	0.545337	0.091427	0.012334
81	C	0.56416	0.129163	0.971764
82	C	0.572606	0.146132	0.796401
83	C	0.591072	0.183137	0.812581
84	C	0.596116	0.193204	0
85	S	0.579293	0.159451	0.154026
86	C	0.53319	0.067072	0.865418
87	N	0.515723	0.032057	0.8891
88	N	0.4808	0.962048	0.919154
89	C	0.463194	0.926755	0.925232
90	S	0.422271	0.844792	0.88298
91	H	0.394254	0.788513	0.29418
92	H	0.427073	0.854271	0.39551
93	H	0.456348	0.913055	0.399309
94	H	0.487695	0.975894	0.394805
95	H	0.515603	0.03183	0.370881
96	H	0.546582	0.093933	0.322346
97	H	0.565992	0.132907	0.659796
98	H	0.599924	0.200906	0.692605
99	H	0.537007	0.07472	0.716092
100	H	0.457384	0.915099	0.783887
101	C	0.194513	0.596332	0
102	C	0.190903	0.594565	0.194432
103	C	0.15484	0.576661	0.24794
104	C	0.13211	0.56535	0.092877
105	C	0.093399	0.546123	0.091293
106	C	0.074204	0.536585	0.261238
107	C	0.037519	0.518364	0.259021
108	C	0.019594	0.509465	0.085559
109	C	0.980671	0.490133	0.068973
110	C	0.95803	0.478886	0.225168
111	C	0.921712	0.460846	0.19646
112	C	0.907594	0.453835	0.012334
113	C	0.869603	0.434964	0.971764
114	C	0.852519	0.42646	0.796401
115	C	0.815264	0.407961	0.812581
116	C	0.805128	0.402949	0
117	S	0.83911	0.419843	0.154026
118	C	0.932114	0.466017	0.865418
119	N	0.967366	0.483527	0.8891
120	N	0.037849	0.518536	0.919154
121	C	0.073381	0.536184	0.925232
122	S	0.1559	0.577136	0.88298
123	H	0.212559	0.605336	0.29418
124	H	0.146355	0.572468	0.39551
125	H	0.087173	0.543023	0.399309
126	H	0.02391	0.511601	0.394805
127	H	0.967595	0.483634	0.370881
128	H	0.905071	0.452577	0.322346
129	H	0.865833	0.433056	0.659796
130	H	0.797374	0.399064	0.692605
131	H	0.924414	0.462194	0.716092
132	H	0.085116	0.542018	0.783887
