data_C66H30N6O6S12_2023-05-12_06:25:02
#******************************************
#
# CIF file created by Zeo++
# Zeo++ is an open source package to
# analyze microporous materials
#
#*******************************************

_cell_length_a		41.7831   
_cell_length_b		42.0816   
_cell_length_c		7   
_cell_angle_alpha		90   
_cell_angle_beta		90   
_cell_angle_gamma		119.69   

_symmetry_space_group_name_H-M		'P1'
_symmetry_Int_Tables_number		1
_symmetry_cell_setting		Monoclinic

loop_
_symmetry_equiv_pos_as_xyz
'+x,+y,+z'

loop_
_atom_site_label
_atom_site_type_symbol
_atom_site_fract_x
_atom_site_fract_y
_atom_site_fract_z
1	C	0.370419	0.674407	0.999995
2	O	0.402934	0.680099	0.999991
3	C	0.341067	0.63637	0.999998
4	C	0.34681	0.608334	0
5	N	0.383207	0.61489	0
6	C	0.303464	0.629619	3e-06
7	O	0.277083	0.596835	5e-06
8	C	0.294393	0.658871	6e-06
9	C	0.259791	0.651812	5e-06
10	N	0.23123	0.614512	0
11	C	0.32516	0.696604	4e-06
12	O	0.317949	0.721901	7e-06
13	C	0.363366	0.705051	0.999999
14	C	0.390487	0.739474	0.999998
15	N	0.384991	0.770031	0
16	H	0.324338	0.58104	1e-06
17	H	0.252464	0.672765	8e-06
18	H	0.417955	0.74439	0.999997
19	C	0.629581	0.325593	0.999995
20	O	0.597066	0.319901	0.999991
21	C	0.658933	0.36363	0.999998
22	C	0.65319	0.391666	0
23	N	0.616793	0.38511	0
24	C	0.696536	0.370381	3e-06
25	O	0.722917	0.403165	5e-06
26	C	0.705607	0.341129	6e-06
27	C	0.740209	0.348188	5e-06
28	N	0.76877	0.385488	0
29	C	0.67484	0.303396	4e-06
30	O	0.682051	0.278099	7e-06
31	C	0.636634	0.294949	0.999999
32	C	0.609513	0.260526	0.999998
33	N	0.615009	0.229969	0
34	H	0.675662	0.41896	1e-06
35	H	0.747536	0.327235	8e-06
36	H	0.582045	0.25561	0.999997
37	C	0.594547	0.406994	0
38	C	0.57598	0.425258	0.045072
39	C	0.564656	0.436395	0.877162
40	C	0.542734	0.457958	0.87573
41	C	0.531901	0.468611	0.713692
42	C	0.512507	0.48769	0.757671
43	C	0.508942	0.4912	0.952101
44	C	0.491055	0.508796	0.047899
45	C	0.487488	0.512306	0.24233
46	C	0.468094	0.531384	0.286308
47	C	0.457263	0.542039	0.12427
48	C	0.435342	0.563603	0.122839
49	C	0.4247	0.574073	0.286998
50	S	0.401326	0.597067	0.238106
51	C	0.405453	0.593006	0
52	C	0.42402	0.574741	0.954928
53	S	0.470497	0.529019	0.922258
54	S	0.5295	0.470979	0.077742
55	C	0.575297	0.425925	0.713002
56	S	0.598672	0.402932	0.761894
57	H	0.570778	0.430378	0.190209
58	H	0.537293	0.463305	0.569342
59	H	0.501766	0.498253	0.649129
60	H	0.498228	0.501741	0.350871
61	H	0.462702	0.536689	0.430658
62	H	0.42924	0.569607	0.43414
63	H	0.429222	0.569623	0.809791
64	H	0.570756	0.430389	0.565861
65	C	0.592408	0.185824	0
66	C	0.574186	0.149295	0.045072
67	C	0.563075	0.127019	0.877162
68	C	0.541561	0.08389	0.87573
69	C	0.530933	0.062582	0.713692
70	C	0.511899	0.024425	0.757671
71	C	0.508396	0.017407	0.952101
72	C	0.49084	0.982215	0.047899
73	C	0.487339	0.975197	0.24233
74	C	0.468304	0.937041	0.286308
75	C	0.457675	0.915732	0.12427
76	C	0.43616	0.872604	0.122839
77	C	0.425714	0.851666	0.286998
78	S	0.402773	0.805679	0.238106
79	C	0.406824	0.813798	0
80	C	0.425047	0.850328	0.954928
81	S	0.470664	0.94177	0.922258
82	S	0.528571	0.057852	0.077742
83	C	0.573521	0.147957	0.713002
84	S	0.596461	0.193944	0.761894
85	H	0.569078	0.139058	0.190209
86	H	0.536226	0.073191	0.569342
87	H	0.501359	0.003295	0.649129
88	H	0.49788	0.996327	0.350871
89	H	0.463012	0.926431	0.430658
90	H	0.430169	0.860597	0.43414
91	H	0.430154	0.860564	0.809791
92	H	0.569067	0.139026	0.565861
93	C	0.812472	0.406615	0
94	C	0.849262	0.42488	0.045072
95	C	0.871697	0.43602	0.877162
96	C	0.915133	0.457584	0.87573
97	C	0.936594	0.46824	0.713692
98	C	0.975022	0.487318	0.757671
99	C	0.98209	0.490826	0.952101
100	C	0.017533	0.508421	0.047899
101	C	0.024601	0.51193	0.24233
102	C	0.063029	0.531008	0.286308
103	C	0.08449	0.541662	0.12427
104	C	0.127926	0.563226	0.122839
105	C	0.149013	0.573695	0.286998
106	S	0.195328	0.596688	0.238106
107	C	0.187151	0.592628	0
108	C	0.150361	0.574364	0.954928
109	S	0.058266	0.528644	0.922258
110	S	0.941357	0.470602	0.077742
111	C	0.850609	0.425552	0.713002
112	S	0.804295	0.402557	0.761894
113	H	0.859572	0.429997	0.190209
114	H	0.925908	0.462936	0.569342
115	H	0.996302	0.497884	0.649129
116	H	0.00332	0.501365	0.350871
117	H	0.073715	0.536312	0.430658
118	H	0.140019	0.569229	0.43414
119	H	0.140051	0.569246	0.809791
120	H	0.859604	0.430019	0.565861
