data_C72H36N12O6S6_2023-05-26_22:46:00
#******************************************
#
# CIF file created by Zeo++
# Zeo++ is an open source package to
# analyze microporous materials
#
#*******************************************

_cell_length_a		40.985   
_cell_length_b		41.2835   
_cell_length_c		7   
_cell_angle_alpha		90   
_cell_angle_beta		90   
_cell_angle_gamma		119.684   

_symmetry_space_group_name_H-M		'P1'
_symmetry_Int_Tables_number		1
_symmetry_cell_setting		Monoclinic

loop_
_symmetry_equiv_pos_as_xyz
'+x,+y,+z'

loop_
_atom_site_label
_atom_site_type_symbol
_atom_site_fract_x
_atom_site_fract_y
_atom_site_fract_z
1	C	0.37114	0.674556	0.999995
2	O	0.404288	0.680358	0.999991
3	C	0.341221	0.635787	0.999998
4	C	0.34708	0.60721	0
5	N	0.384184	0.613892	0
6	C	0.302887	0.628905	3e-06
7	O	0.275997	0.595489	5e-06
8	C	0.293636	0.658721	6e-06
9	C	0.25836	0.651526	5e-06
10	N	0.229248	0.613507	0
11	C	0.324997	0.697181	4e-06
12	O	0.317642	0.722965	7e-06
13	C	0.363946	0.705791	0.999999
14	C	0.391591	0.740877	0.999998
15	N	0.385984	0.772023	0
16	H	0.324173	0.57939	1e-06
17	H	0.250889	0.672883	8e-06
18	H	0.419594	0.745887	0.999997
19	C	0.62886	0.325444	0.999995
20	O	0.595712	0.319642	0.999991
21	C	0.658779	0.364213	0.999998
22	C	0.65292	0.39279	0
23	N	0.615816	0.386108	0
24	C	0.697113	0.371095	3e-06
25	O	0.724003	0.404511	5e-06
26	C	0.706364	0.341279	6e-06
27	C	0.74164	0.348474	5e-06
28	N	0.770752	0.386493	0
29	C	0.675003	0.302819	4e-06
30	O	0.682358	0.277035	7e-06
31	C	0.636054	0.294209	0.999999
32	C	0.608409	0.259123	0.999998
33	N	0.614016	0.227977	0
34	H	0.675827	0.42061	1e-06
35	H	0.749111	0.327117	8e-06
36	H	0.580406	0.254113	0.999997
37	C	0.593134	0.408413	0
38	C	0.59427	0.407292	0.804954
39	C	0.575821	0.425435	0.720833
40	C	0.561191	0.439827	0.854013
41	C	0.540384	0.46029	0.82127
42	C	0.533207	0.467353	0.635339
43	C	0.513803	0.486436	0.608372
44	N	0.501143	0.498884	0.752012
45	C	0.507623	0.492507	0.934831
46	C	0.492831	0.507051	0.087621
47	C	0.496851	0.503099	0.282793
48	C	0.482025	0.517677	0.414417
49	C	0.463396	0.535995	0.349865
50	C	0.460112	0.539226	0.154449
51	C	0.441185	0.557838	0.065256
52	C	0.4369	0.562053	0.871497
53	C	0.41704	0.581584	0.833431
54	C	0.406866	0.591587	0
55	S	0.420618	0.578062	0.197845
56	N	0.474516	0.525063	0.026298
57	C	0.527133	0.473318	0.9715
58	S	0.570635	0.430542	0.08194
59	H	0.607425	0.394352	0.725212
60	H	0.573639	0.427578	0.56773
61	H	0.542292	0.458421	0.510549
62	H	0.507711	0.49243	0.465855
63	H	0.511239	0.48895	0.336913
64	H	0.485002	0.514749	0.566746
65	H	0.451921	0.54728	0.452819
66	H	0.447793	0.551341	0.761975
67	H	0.410847	0.587674	0.691926
68	H	0.532065	0.468463	0.117859
69	C	0.590981	0.182981	0
70	C	0.592099	0.185221	0.804954
71	C	0.573998	0.148933	0.720833
72	C	0.559641	0.120156	0.854013
73	C	0.539225	0.07923	0.82127
74	C	0.532179	0.065111	0.635339
75	C	0.513141	0.026945	0.608372
76	N	0.500722	0.002047	0.752012
77	C	0.507084	0.014797	0.934831
78	C	0.492574	0.985707	0.087621
79	C	0.496518	0.993612	0.282793
80	C	0.481974	0.964454	0.414417
81	C	0.463698	0.927816	0.349865
82	C	0.460475	0.921356	0.154449
83	C	0.441907	0.884132	0.065256
84	C	0.437701	0.875702	0.871497
85	C	0.418217	0.836642	0.833431
86	C	0.408237	0.816634	0
87	S	0.42173	0.843682	0.197845
88	N	0.474605	0.949684	0.026298
89	C	0.526229	0.053173	0.9715
90	S	0.568903	0.138728	0.08194
91	H	0.605008	0.211096	0.725212
92	H	0.571861	0.144645	0.56773
93	H	0.54109	0.082976	0.510549
94	H	0.507161	0.01496	0.465855
95	H	0.510632	0.021909	0.336913
96	H	0.484895	0.97031	0.566746
97	H	0.45244	0.905247	0.452819
98	H	0.448388	0.897126	0.761975
99	H	0.412141	0.824462	0.691926
100	H	0.531072	0.062877	0.117859
101	C	0.815302	0.408028	0
102	C	0.813047	0.40691	0.804954
103	C	0.849598	0.425053	0.720833
104	C	0.878585	0.43944	0.854013
105	C	0.919808	0.459901	0.82127
106	C	0.93403	0.466958	0.635339
107	C	0.972473	0.486041	0.608372
108	N	0.997552	0.498491	0.752012
109	C	0.984709	0.492118	0.934831
110	C	0.014011	0.506664	0.087621
111	C	0.006049	0.502712	0.282793
112	C	0.035418	0.517291	0.414417
113	C	0.072322	0.53561	0.349865
114	C	0.07883	0.53884	0.154449
115	C	0.116325	0.557452	0.065256
116	C	0.124816	0.561667	0.871497
117	C	0.16416	0.581197	0.833431
118	C	0.184313	0.591201	0
119	S	0.157069	0.577678	0.197845
120	N	0.050296	0.524676	0.026298
121	C	0.946055	0.472932	0.9715
122	S	0.859878	0.430152	0.08194
123	H	0.786983	0.393973	0.725212
124	H	0.853917	0.427199	0.56773
125	H	0.916034	0.458025	0.510549
126	H	0.984545	0.492032	0.465855
127	H	0.977546	0.488562	0.336913
128	H	0.029519	0.514363	0.566746
129	H	0.095056	0.546895	0.452819
130	H	0.103236	0.550955	0.761975
131	H	0.176428	0.587287	0.691926
132	H	0.93628	0.468082	0.117859
