data_C57H27N9O6S6_2023-05-13_08:33:37
#******************************************
#
# CIF file created by Zeo++
# Zeo++ is an open source package to
# analyze microporous materials
#
#*******************************************

_cell_length_a		36.0049   
_cell_length_b		36.3035   
_cell_length_c		7   
_cell_angle_alpha		90   
_cell_angle_beta		90   
_cell_angle_gamma		119.641   

_symmetry_space_group_name_H-M		'P1'
_symmetry_Int_Tables_number		1
_symmetry_cell_setting		Monoclinic

loop_
_symmetry_equiv_pos_as_xyz
'+x,+y,+z'

loop_
_atom_site_label
_atom_site_type_symbol
_atom_site_fract_x
_atom_site_fract_y
_atom_site_fract_z
1	C	0.376361	0.675635	0.999995
2	O	0.414088	0.682229	0.999991
3	C	0.342343	0.631566	0.999998
4	C	0.34904	0.599083	0
5	N	0.39127	0.606679	0
6	C	0.298714	0.623744	3e-06
7	O	0.268137	0.58576	5e-06
8	C	0.288153	0.657635	6e-06
9	C	0.248005	0.649457	5e-06
10	N	0.214905	0.606241	0
11	C	0.323814	0.701352	4e-06
12	O	0.315415	0.730661	7e-06
13	C	0.368141	0.711139	0.999999
14	C	0.399575	0.751021	0.999998
15	N	0.393161	0.786424	0
16	H	0.322993	0.567461	1e-06
17	H	0.239479	0.673732	8e-06
18	H	0.431446	0.756716	0.999997
19	C	0.623639	0.324365	0.999995
20	O	0.585912	0.317771	0.999991
21	C	0.657657	0.368434	0.999998
22	C	0.65096	0.400917	0
23	N	0.60873	0.393321	0
24	C	0.701286	0.376256	3e-06
25	O	0.731863	0.41424	5e-06
26	C	0.711847	0.342365	6e-06
27	C	0.751995	0.350543	5e-06
28	N	0.785095	0.393759	0
29	C	0.676186	0.298648	4e-06
30	O	0.684585	0.269339	7e-06
31	C	0.631859	0.288861	0.999999
32	C	0.600425	0.248979	0.999998
33	N	0.606839	0.213576	0
34	H	0.677007	0.432539	1e-06
35	H	0.760521	0.326268	8e-06
36	H	0.568554	0.243284	0.999997
37	C	0.417112	0.581325	0
38	C	0.414948	0.583442	0.19452
39	S	0.439573	0.559279	0.303916
40	C	0.453467	0.545654	0.089718
41	C	0.47737	0.522202	0.084542
42	C	0.490318	0.509499	0.247501
43	N	0.512275	0.487957	0.247968
44	C	0.522592	0.477833	0.077917
45	C	0.546427	0.454448	0.084432
46	C	0.561201	0.439955	0.935156
47	C	0.582888	0.418675	0
48	C	0.584688	0.416905	0.194878
49	S	0.559853	0.44127	0.301033
50	C	0.511195	0.489014	0.906895
51	C	0.488586	0.511196	0.910973
52	C	0.438926	0.559925	0.938553
53	H	0.400267	0.597844	0.278184
54	H	0.483523	0.516166	0.390611
55	H	0.556662	0.444411	0.785858
56	H	0.599191	0.402675	0.280861
57	H	0.519378	0.480985	0.770002
58	H	0.480089	0.519532	0.775213
59	H	0.443684	0.55526	0.789761
60	C	0.418448	0.837132	0
61	C	0.416336	0.832891	0.19452
62	S	0.440435	0.881215	0.303916
63	C	0.454023	0.908472	0.089718
64	C	0.477412	0.955376	0.084542
65	C	0.490081	0.980784	0.247501
66	N	0.511566	0.023868	0.247968
67	C	0.521662	0.044114	0.077917
68	C	0.544984	0.090884	0.084432
69	C	0.559439	0.119874	0.935156
70	C	0.580661	0.162431	0
71	C	0.582427	0.165966	0.194878
72	S	0.558127	0.117236	0.301033
73	C	0.510511	0.021751	0.906895
74	C	0.488388	0.977387	0.910973
75	C	0.43979	0.879935	0.938553
76	H	0.401972	0.804085	0.278184
77	H	0.483432	0.967449	0.390611
78	H	0.554995	0.110964	0.785858
79	H	0.596619	0.194426	0.280861
80	H	0.518519	0.037809	0.770002
81	H	0.480075	0.960714	0.775213
82	H	0.444442	0.889268	0.789761
83	C	0.163777	0.580886	0
84	C	0.168052	0.58301	0.19452
85	S	0.119329	0.558849	0.303916
86	C	0.091846	0.545217	0.089718
87	C	0.044554	0.521765	0.084542
88	C	0.018936	0.509061	0.247501
89	N	0.975495	0.487518	0.247968
90	C	0.955082	0.477396	0.077917
91	C	0.907925	0.454011	0.084432
92	C	0.878696	0.439515	0.935156
93	C	0.835787	0.418237	0
94	C	0.832222	0.416471	0.194878
95	S	0.881356	0.440838	0.301033
96	C	0.97763	0.488578	0.906895
97	C	0.022361	0.51076	0.910973
98	C	0.12062	0.559484	0.938553
99	H	0.197097	0.597414	0.278184
100	H	0.032381	0.515728	0.390611
101	H	0.887679	0.443968	0.785858
102	H	0.803527	0.402242	0.280861
103	H	0.961439	0.48055	0.770002
104	H	0.039172	0.519097	0.775213
105	H	0.11121	0.554815	0.789761
