data_C90H42N6O6S6_2023-05-13_18:06:24
#******************************************
#
# CIF file created by Zeo++
# Zeo++ is an open source package to
# analyze microporous materials
#
#*******************************************

_cell_length_a		40.578   
_cell_length_b		40.8766   
_cell_length_c		7   
_cell_angle_alpha		90   
_cell_angle_beta		90   
_cell_angle_gamma		119.681   

_symmetry_space_group_name_H-M		'P1'
_symmetry_Int_Tables_number		1
_symmetry_cell_setting		Monoclinic

loop_
_symmetry_equiv_pos_as_xyz
'+x,+y,+z'

loop_
_atom_site_label
_atom_site_type_symbol
_atom_site_fract_x
_atom_site_fract_y
_atom_site_fract_z
1	C	0.371519	0.674635	0.999995
2	O	0.404998	0.680494	0.999991
3	C	0.341302	0.63548	0.999998
4	C	0.347221	0.60662	0
5	N	0.384698	0.613369	0
6	C	0.302584	0.62853	3e-06
7	O	0.275426	0.594783	5e-06
8	C	0.293238	0.658642	6e-06
9	C	0.257609	0.651376	5e-06
10	N	0.228208	0.612979	0
11	C	0.324912	0.697484	4e-06
12	O	0.317481	0.723524	7e-06
13	C	0.364251	0.706179	0.999999
14	C	0.392171	0.741614	0.999998
15	N	0.386505	0.773069	0
16	H	0.324087	0.578524	1e-06
17	H	0.250061	0.672944	8e-06
18	H	0.420454	0.746674	0.999997
19	C	0.628481	0.325365	0.999995
20	O	0.595002	0.319506	0.999991
21	C	0.658698	0.36452	0.999998
22	C	0.652779	0.39338	0
23	N	0.615302	0.386631	0
24	C	0.697416	0.37147	3e-06
25	O	0.724574	0.405217	5e-06
26	C	0.706762	0.341358	6e-06
27	C	0.742391	0.348624	5e-06
28	N	0.771792	0.387021	0
29	C	0.675088	0.302516	4e-06
30	O	0.682519	0.276476	7e-06
31	C	0.635749	0.293821	0.999999
32	C	0.607829	0.258386	0.999998
33	N	0.613495	0.226931	0
34	H	0.675913	0.421476	1e-06
35	H	0.749939	0.327056	8e-06
36	H	0.579546	0.253326	0.999997
37	C	0.407609	0.590842	0
38	C	0.37145	0.560974	0.016175
39	S	0.370158	0.51923	0.969202
40	C	0.418126	0.541528	0.928185
41	C	0.436129	0.51924	0.877164
42	C	0.434506	0.508587	0.685568
43	C	0.451526	0.487915	0.627169
44	C	0.470636	0.477545	0.758774
45	C	0.487692	0.45683	0.69946
46	C	0.506843	0.446379	0.829678
47	C	0.509762	0.456225	0.024513
48	C	0.529048	0.446079	0.161213
49	C	0.548337	0.425072	0.108774
50	C	0.583982	0.438512	0.030176
51	C	0.592391	0.409158	0
52	C	0.563707	0.374447	0.055282
53	S	0.525965	0.377317	0.145272
54	C	0.530698	0.456758	0.35278
55	C	0.513487	0.47724	0.411389
56	C	0.494364	0.487599	0.279798
57	C	0.477167	0.508173	0.339268
58	C	0.458051	0.518658	0.209011
59	C	0.455359	0.509038	0.013926
60	C	0.472742	0.488002	0.953061
61	C	0.492336	0.477217	0.085426
62	C	0.434705	0.580099	0.949233
63	H	0.345742	0.561324	0.052774
64	H	0.41989	0.516426	0.580425
65	H	0.449717	0.48001	0.477528
66	H	0.486259	0.448452	0.550795
67	H	0.519455	0.430091	0.775928
68	H	0.602685	0.467936	0.996597
69	H	0.562805	0.347597	0.048005
70	H	0.545513	0.449118	0.457703
71	H	0.515202	0.485053	0.561134
72	H	0.478346	0.516297	0.488213
73	H	0.445007	0.534516	0.263237
74	H	0.464754	0.599228	0.929087
75	C	0.408979	0.818122	0
76	C	0.439202	0.812018	0.016175
77	S	0.481127	0.852216	0.969202
78	C	0.458429	0.877527	0.928185
79	C	0.480694	0.917487	0.877164
80	C	0.491402	0.926465	0.685568
81	C	0.512051	0.963846	0.627169
82	C	0.522341	0.993061	0.758774
83	C	0.543033	0.03052	0.69946
84	C	0.553404	0.059854	0.829678
85	C	0.543499	0.05296	0.024513
86	C	0.553563	0.082125	0.161213
87	C	0.574534	0.122084	0.108774
88	C	0.56081	0.144003	0.030176
89	C	0.590231	0.181489	0
90	C	0.62527	0.187594	0.055282
91	S	0.62263	0.147396	0.145272
92	C	0.542829	0.073147	0.35278
93	C	0.522373	0.035765	0.411389
94	C	0.512094	0.006551	0.279798
95	C	0.491544	0.969091	0.339268
96	C	0.481138	0.939757	0.209011
97	C	0.490816	0.946652	0.013926
98	C	0.511827	0.984753	0.953061
99	C	0.522531	0.014858	0.085426
100	C	0.419592	0.855608	0.949233
101	H	0.439015	0.786232	0.052774
102	H	0.483625	0.904214	0.580425
103	H	0.52	0.969911	0.477528
104	H	0.551455	0.037426	0.550795
105	H	0.569679	0.088518	0.775928
106	H	0.531144	0.133275	0.996597
107	H	0.652238	0.21338	0.048005
108	H	0.550406	0.095398	0.457703
109	H	0.514517	0.0297	0.561134
110	H	0.483379	0.962185	0.488213
111	H	0.465298	0.911094	0.263237
112	H	0.400191	0.866336	0.929087
113	C	0.182823	0.590452	0
114	C	0.18876	0.626424	0.016175
115	S	0.148126	0.62797	0.969202
116	C	0.122855	0.580361	0.928185
117	C	0.082587	0.56269	0.877164
118	C	0.073503	0.564364	0.685568
119	C	0.035835	0.547655	0.627169
120	C	0.006433	0.528811	0.758774
121	C	0.968686	0.512066	0.69946
122	C	0.939164	0.493183	0.829678
123	C	0.94615	0.490231	0.024513
124	C	0.9168	0.471213	0.161213
125	C	0.87654	0.45226	0.108774
126	C	0.854618	0.416902	0.030176
127	C	0.816788	0.408769	0
128	C	0.810434	0.437375	0.055282
129	S	0.850816	0.474703	0.145272
130	C	0.925884	0.469511	0.35278
131	C	0.963551	0.486411	0.411389
132	C	0.992953	0.505267	0.279798
133	C	0.030699	0.522152	0.339268
134	C	0.060222	0.541001	0.209011
135	C	0.053237	0.543727	0.013926
136	C	0.014842	0.526661	0.953061
137	C	0.984544	0.507341	0.085426
138	C	0.145114	0.563709	0.949233
139	H	0.214654	0.65186	0.052774
140	H	0.095896	0.578777	0.580425
141	H	0.029694	0.549495	0.477528
142	H	0.961697	0.513538	0.550795
143	H	0.910277	0.480807	0.775928
144	H	0.865581	0.398206	0.996597
145	H	0.784368	0.43844	0.048005
146	H	0.903492	0.4549	0.457703
147	H	0.969692	0.484663	0.561134
148	H	0.037686	0.520934	0.488213
149	H	0.089106	0.553807	0.263237
150	H	0.134466	0.533852	0.929087
