data_C90H42N6O6S6_2023-05-29_21:44:52
#******************************************
#
# CIF file created by Zeo++
# Zeo++ is an open source package to
# analyze microporous materials
#
#*******************************************

_cell_length_a		43.3937   
_cell_length_b		43.6922   
_cell_length_c		7   
_cell_angle_alpha		90   
_cell_angle_beta		90   
_cell_angle_gamma		119.702   

_symmetry_space_group_name_H-M		'P1'
_symmetry_Int_Tables_number		1
_symmetry_cell_setting		Monoclinic

loop_
_symmetry_equiv_pos_as_xyz
'+x,+y,+z'

loop_
_atom_site_label
_atom_site_type_symbol
_atom_site_fract_x
_atom_site_fract_y
_atom_site_fract_z
1	C	0.369044	0.674123	0.999995
2	O	0.400354	0.679605	0.999991
3	C	0.340773	0.637484	0.999998
4	C	0.346297	0.610478	0
5	N	0.381344	0.616793	0
6	C	0.304565	0.630981	3e-06
7	O	0.279156	0.599401	5e-06
8	C	0.295837	0.659158	6e-06
9	C	0.262517	0.652358	5e-06
10	N	0.235008	0.616429	0
11	C	0.32547	0.695504	4e-06
12	O	0.318532	0.719871	7e-06
13	C	0.36226	0.70364	0.999999
14	C	0.388382	0.736798	0.999998
15	N	0.383097	0.766232	0
16	H	0.324653	0.584187	1e-06
17	H	0.255467	0.672541	8e-06
18	H	0.414832	0.741533	0.999997
19	C	0.630956	0.325877	0.999995
20	O	0.599646	0.320395	0.999991
21	C	0.659227	0.362516	0.999998
22	C	0.653703	0.389522	0
23	N	0.618656	0.383207	0
24	C	0.695435	0.369019	3e-06
25	O	0.720844	0.400599	5e-06
26	C	0.704163	0.340842	6e-06
27	C	0.737483	0.347642	5e-06
28	N	0.764992	0.383571	0
29	C	0.67453	0.304496	4e-06
30	O	0.681468	0.280129	7e-06
31	C	0.63774	0.29636	0.999999
32	C	0.611618	0.263202	0.999998
33	N	0.616903	0.233768	0
34	H	0.675347	0.415813	1e-06
35	H	0.744533	0.327459	8e-06
36	H	0.585168	0.258467	0.999997
37	C	0.59724	0.404286	0
38	C	0.599901	0.401668	0.193333
39	S	0.580009	0.421247	0.31293
40	C	0.567513	0.433547	0.104862
41	C	0.547614	0.453133	0.109474
42	C	0.537806	0.462787	0.280912
43	C	0.518968	0.48133	0.283403
44	C	0.509352	0.490795	0.455354
45	C	0.490648	0.509205	0.455354
46	C	0.481032	0.518669	0.283403
47	C	0.462193	0.537212	0.280912
48	C	0.452384	0.546865	0.109473
49	C	0.432485	0.566451	0.104861
50	C	0.421093	0.577673	0.947888
51	C	0.40276	0.595714	0
52	C	0.400093	0.598325	0.193333
53	S	0.419981	0.578743	0.31293
54	C	0.462195	0.537207	0.938007
55	C	0.481032	0.518668	0.935322
56	C	0.490646	0.509204	0.763338
57	C	0.509351	0.490793	0.763338
58	C	0.518966	0.48133	0.935322
59	C	0.537802	0.46279	0.938008
60	C	0.509491	0.490657	0.109354
61	C	0.490507	0.509342	0.109354
62	C	0.57891	0.42233	0.947888
63	H	0.612425	0.38934	0.270684
64	H	0.544711	0.455992	0.417697
65	H	0.516358	0.4839	0.591633
66	H	0.483643	0.516101	0.591634
67	H	0.455289	0.544008	0.417696
68	H	0.425673	0.573176	0.801222
69	H	0.387565	0.61065	0.270684
70	H	0.455237	0.544054	0.801628
71	H	0.483645	0.516094	0.627048
72	H	0.516351	0.483903	0.627049
73	H	0.544759	0.455942	0.801628
74	H	0.574335	0.426832	0.801222
75	C	0.595132	0.191245	0
76	C	0.597745	0.196483	0.193333
77	S	0.578209	0.157324	0.31293
78	C	0.565936	0.132724	0.104862
79	C	0.546394	0.093552	0.109474
80	C	0.536761	0.074244	0.280912
81	C	0.518259	0.037158	0.283403
82	C	0.508815	0.018228	0.455354
83	C	0.490446	0.981408	0.455354
84	C	0.481003	0.962478	0.283403
85	C	0.462501	0.925392	0.280912
86	C	0.452869	0.906084	0.109473
87	C	0.433327	0.866912	0.104861
88	C	0.42213	0.844477	0.947888
89	C	0.404129	0.808391	0
90	C	0.401523	0.803154	0.193333
91	S	0.421063	0.842312	0.31293
92	C	0.462506	0.9254	0.938007
93	C	0.481005	0.96248	0.935322
94	C	0.490447	0.981407	0.763338
95	C	0.508817	0.018229	0.763338
96	C	0.518259	0.037156	0.935322
97	C	0.536758	0.074236	0.938008
98	C	0.508953	0.018503	0.109354
99	C	0.49031	0.981133	0.109354
100	C	0.577129	0.155159	0.947888
101	H	0.610046	0.221138	0.270684
102	H	0.543541	0.087835	0.417697
103	H	0.515695	0.032019	0.591633
104	H	0.483566	0.967617	0.591634
105	H	0.45572	0.911801	0.417696
106	H	0.426617	0.853483	0.801222
107	H	0.389226	0.778498	0.270684
108	H	0.455674	0.911704	0.801628
109	H	0.483573	0.967627	0.627048
110	H	0.515692	0.03201	0.627049
111	H	0.543591	0.087933	0.801628
112	H	0.572636	0.146154	0.801222
113	C	0.807077	0.403922	0
114	C	0.801804	0.401304	0.193333
115	S	0.841231	0.420883	0.31293
116	C	0.866	0.433183	0.104862
117	C	0.905441	0.452769	0.109474
118	C	0.924882	0.462423	0.280912
119	C	0.962222	0.480966	0.283403
120	C	0.981282	0.490431	0.455354
121	C	0.018355	0.508841	0.455354
122	C	0.037415	0.518306	0.283403
123	C	0.074755	0.536849	0.280912
124	C	0.094196	0.546505	0.109473
125	C	0.133637	0.566091	0.104861
126	C	0.156226	0.577304	0.947888
127	C	0.19256	0.595349	0
128	C	0.197833	0.597975	0.193333
129	S	0.158406	0.578399	0.31293
130	C	0.074747	0.536847	0.938007
131	C	0.037413	0.518306	0.935322
132	C	0.018356	0.508843	0.763338
133	C	0.981281	0.490431	0.763338
134	C	0.962224	0.480967	0.935322
135	C	0.924889	0.462427	0.938008
136	C	0.981005	0.490294	0.109354
137	C	0.018632	0.508979	0.109354
138	C	0.84341	0.421965	0.947888
139	H	0.776979	0.388976	0.270684
140	H	0.911197	0.455627	0.417697
141	H	0.967396	0.483535	0.591633
142	H	0.032241	0.515736	0.591634
143	H	0.08844	0.543645	0.417696
144	H	0.147159	0.572795	0.801222
145	H	0.222658	0.610306	0.270684
146	H	0.088538	0.543696	0.801628
147	H	0.032231	0.515733	0.627048
148	H	0.967406	0.483541	0.627049
149	H	0.911099	0.455579	0.801628
150	H	0.852478	0.426468	0.801222
