data_C78H36N12O6S6_2023-05-11_00:00:18
#******************************************
#
# CIF file created by Zeo++
# Zeo++ is an open source package to
# analyze microporous materials
#
#*******************************************

_cell_length_a		44.9656   
_cell_length_b		45.2641   
_cell_length_c		7   
_cell_angle_alpha		90   
_cell_angle_beta		90   
_cell_angle_gamma		119.712   

_symmetry_space_group_name_H-M		'P1'
_symmetry_Int_Tables_number		1
_symmetry_cell_setting		Monoclinic

loop_
_symmetry_equiv_pos_as_xyz
'+x,+y,+z'

loop_
_atom_site_label
_atom_site_type_symbol
_atom_site_fract_x
_atom_site_fract_y
_atom_site_fract_z
1	C	0.367797	0.673864	0.999995
2	O	0.398013	0.679157	0.999991
3	C	0.340507	0.638494	0.999998
4	C	0.345832	0.612423	0
5	N	0.379656	0.61852	0
6	C	0.305563	0.632216	3e-06
7	O	0.281036	0.601731	5e-06
8	C	0.297146	0.659418	6e-06
9	C	0.26499	0.652854	5e-06
10	N	0.238435	0.618168	0
11	C	0.325751	0.694506	4e-06
12	O	0.31906	0.718029	7e-06
13	C	0.361256	0.70236	0.999999
14	C	0.386472	0.73437	0.999998
15	N	0.381377	0.762784	0
16	H	0.324939	0.587043	1e-06
17	H	0.25819	0.672338	8e-06
18	H	0.411998	0.738941	0.999997
19	C	0.632203	0.326136	0.999995
20	O	0.601987	0.320843	0.999991
21	C	0.659493	0.361506	0.999998
22	C	0.654168	0.387577	0
23	N	0.620344	0.38148	0
24	C	0.694437	0.367784	3e-06
25	O	0.718964	0.398269	5e-06
26	C	0.702854	0.340582	6e-06
27	C	0.73501	0.347146	5e-06
28	N	0.761565	0.381832	0
29	C	0.674249	0.305494	4e-06
30	O	0.68094	0.281971	7e-06
31	C	0.638744	0.29764	0.999999
32	C	0.613528	0.26563	0.999998
33	N	0.618623	0.237216	0
34	H	0.675061	0.412957	1e-06
35	H	0.74181	0.327662	8e-06
36	H	0.588002	0.261059	0.999997
37	C	0.400318	0.598171	0
38	C	0.410392	0.588249	0.164421
39	C	0.428403	0.570512	0.148725
40	C	0.436647	0.562393	0.96948
41	C	0.455748	0.543581	0.963236
42	N	0.465576	0.533903	0.117363
43	C	0.482868	0.516873	0.068498
44	C	0.496837	0.503116	0.195621
45	C	0.513735	0.486473	0.126692
46	C	0.517132	0.483128	0.931505
47	C	0.503164	0.496884	0.804382
48	C	0.486265	0.513527	0.873312
49	S	0.467058	0.532442	0.751132
50	N	0.534425	0.466097	0.882641
51	C	0.544252	0.456419	0.036767
52	C	0.563353	0.437607	0.030522
53	C	0.571596	0.429488	0.851277
54	C	0.589607	0.41175	0.83558
55	C	0.599682	0.401829	0
56	C	0.591907	0.409488	0.179242
57	C	0.573865	0.427255	0.194258
58	S	0.532942	0.467558	0.248872
59	C	0.426136	0.572746	0.805744
60	C	0.408095	0.590513	0.820758
61	H	0.404463	0.594088	0.305145
62	H	0.436094	0.562937	0.279115
63	H	0.494299	0.505615	0.348258
64	H	0.505701	0.494385	0.651746
65	H	0.563904	0.437061	0.720887
66	H	0.595536	0.40591	0.694855
67	H	0.599709	0.401805	0.308373
68	H	0.568332	0.432706	0.336999
69	H	0.43167	0.567296	0.663004
70	H	0.400293	0.598197	0.691627
71	C	0.401683	0.803483	0
72	C	0.411584	0.823326	0.164421
73	C	0.429283	0.858801	0.148725
74	C	0.437384	0.875039	0.96948
75	C	0.456156	0.912662	0.963236
76	N	0.465813	0.932019	0.117363
77	C	0.482807	0.96608	0.068498
78	C	0.496535	0.993593	0.195621
79	C	0.513142	0.026879	0.126692
80	C	0.51648	0.033569	0.931505
81	C	0.502753	0.006056	0.804382
82	C	0.486145	0.97277	0.873312
83	S	0.467271	0.93494	0.751132
84	N	0.533474	0.06763	0.882641
85	C	0.543131	0.086987	0.036767
86	C	0.561903	0.12461	0.030522
87	C	0.570005	0.140848	0.851277
88	C	0.587704	0.176323	0.83558
89	C	0.597604	0.196166	0
90	C	0.589962	0.18085	0.179242
91	C	0.572233	0.145315	0.194258
92	S	0.532016	0.064709	0.248872
93	C	0.427054	0.854334	0.805744
94	C	0.409324	0.818799	0.820758
95	H	0.405757	0.811647	0.305145
96	H	0.436842	0.87395	0.279115
97	H	0.494041	0.988595	0.348258
98	H	0.505246	0.011054	0.651746
99	H	0.562447	0.125699	0.720887
100	H	0.593532	0.188001	0.694855
101	H	0.597629	0.196217	0.308373
102	H	0.566794	0.134415	0.336999
103	H	0.432492	0.865234	0.663004
104	H	0.401657	0.803432	0.691627
105	C	0.197467	0.597819	0
106	C	0.177492	0.587898	0.164421
107	C	0.141782	0.57016	0.148725
108	C	0.125437	0.562041	0.96948
109	C	0.087564	0.54323	0.963236
110	N	0.06808	0.533551	0.117363
111	C	0.033793	0.51652	0.068498
112	C	0.006097	0.502764	0.195621
113	C	0.972591	0.486121	0.126692
114	C	0.965856	0.482776	0.931505
115	C	0.993552	0.496533	0.804382
116	C	0.027058	0.513175	0.873312
117	S	0.065139	0.53209	0.751132
118	N	0.93157	0.465745	0.882641
119	C	0.912085	0.456067	0.036767
120	C	0.874212	0.437255	0.030522
121	C	0.857867	0.429137	0.851277
122	C	0.822157	0.4114	0.83558
123	C	0.802182	0.401478	0
124	C	0.8176	0.409135	0.179242
125	C	0.85337	0.426903	0.194258
126	S	0.93451	0.467206	0.248872
127	C	0.146279	0.572393	0.805744
128	C	0.182049	0.59016	0.820758
129	H	0.189249	0.593738	0.305145
130	H	0.126533	0.562586	0.279115
131	H	0.011128	0.505263	0.348258
132	H	0.988521	0.494034	0.651746
133	H	0.873116	0.436713	0.720887
134	H	0.810401	0.405561	0.694855
135	H	0.802131	0.401451	0.308373
136	H	0.864342	0.432352	0.336999
137	H	0.135307	0.566943	0.663004
138	H	0.197518	0.597844	0.691627
