data_C108H48N12O6S21_2023-05-12_03:05:58
#******************************************
#
# CIF file created by Zeo++
# Zeo++ is an open source package to
# analyze microporous materials
#
#*******************************************

_cell_length_a		59.9742   
_cell_length_b		60.2726   
_cell_length_c		7   
_cell_angle_alpha		90   
_cell_angle_beta		90   
_cell_angle_gamma		119.784   

_symmetry_space_group_name_H-M		'P1'
_symmetry_Int_Tables_number		1
_symmetry_cell_setting		Monoclinic

loop_
_symmetry_equiv_pos_as_xyz
'+x,+y,+z'

loop_
_atom_site_label
_atom_site_type_symbol
_atom_site_fract_x
_atom_site_fract_y
_atom_site_fract_z
1	C	0.359181	0.672076	0.999995
2	O	0.381841	0.676054	0.999991
3	C	0.338681	0.645494	0.999998
4	C	0.342645	0.625901	0
5	N	0.368011	0.630483	0
6	C	0.312475	0.640776	3e-06
7	O	0.294053	0.617865	5e-06
8	C	0.306194	0.661219	6e-06
9	C	0.282078	0.656286	5e-06
10	N	0.262131	0.630219	0
11	C	0.327679	0.687588	4e-06
12	O	0.322688	0.705267	7e-06
13	C	0.354308	0.693491	0.999999
14	C	0.373248	0.717548	0.999998
15	N	0.369459	0.738902	0
16	H	0.326953	0.606827	1e-06
17	H	0.277001	0.670928	8e-06
18	H	0.392391	0.720983	0.999997
19	C	0.640819	0.327924	0.999995
20	O	0.618159	0.323946	0.999991
21	C	0.661319	0.354506	0.999998
22	C	0.657355	0.374099	0
23	N	0.631989	0.369517	0
24	C	0.687525	0.359224	3e-06
25	O	0.705947	0.382135	5e-06
26	C	0.693806	0.338781	6e-06
27	C	0.717922	0.343714	5e-06
28	N	0.737869	0.369781	0
29	C	0.672321	0.312412	4e-06
30	O	0.677312	0.294733	7e-06
31	C	0.645692	0.306509	0.999999
32	C	0.626752	0.282452	0.999998
33	N	0.630541	0.261098	0
34	H	0.673047	0.393173	1e-06
35	H	0.722999	0.329072	8e-06
36	H	0.607609	0.279017	0.999997
37	C	0.383481	0.61519	0
38	C	0.395591	0.619847	0.173283
39	S	0.411351	0.602938	0.197615
40	C	0.401874	0.589159	0.974871
41	C	0.409209	0.57138	0.897199
42	C	0.406565	0.563182	0.70985
43	C	0.415537	0.545529	0.679237
44	C	0.425022	0.540449	0.843308
45	C	0.435407	0.523359	0.860589
46	C	0.43162	0.504033	0.735048
47	C	0.444601	0.490673	0.791726
48	C	0.457951	0.499977	0.960074
49	C	0.47369	0.491687	0.061843
50	C	0.496832	0.494851	0.985803
51	C	0.512315	0.486798	0.081929
52	C	0.506068	0.474699	0.262485
53	C	0.522179	0.466462	0.361622
54	C	0.529784	0.469731	0.55039
55	C	0.545425	0.458702	0.593934
56	C	0.549521	0.447069	0.43814
57	C	0.564273	0.43394	0.435497
58	C	0.573399	0.426968	0.592403
59	C	0.587313	0.4143	0.541908
60	C	0.588751	0.411724	0.346745
61	C	0.601201	0.399908	0.244457
62	C	0.602833	0.397576	0.048519
63	C	0.616519	0.38481	0
64	C	0.625154	0.377535	0.155763
65	S	0.616623	0.386269	0.363371
66	S	0.573073	0.424974	0.228969
67	S	0.534129	0.449934	0.240633
68	C	0.482718	0.470839	0.34669
69	N	0.472648	0.459702	0.515638
70	S	0.445268	0.459796	0.541519
71	N	0.444584	0.473934	0.340979
72	C	0.466047	0.479463	0.243247
73	S	0.455144	0.525081	0.044882
74	S	0.422525	0.557172	0.032321
75	C	0.386925	0.597749	0.88552
76	H	0.396091	0.632257	0.28673
77	H	0.398654	0.569531	0.597342
78	H	0.415119	0.537181	0.541504
79	H	0.419839	0.499348	0.607896
80	H	0.443863	0.474825	0.71338
81	H	0.503347	0.504143	0.847311
82	H	0.53009	0.490436	0.012254
83	H	0.524362	0.47957	0.653853
84	H	0.553203	0.459408	0.734785
85	H	0.57025	0.430551	0.738794
86	H	0.595768	0.407442	0.646589
87	H	0.594555	0.404718	0.94458
88	H	0.635985	0.367584	0.158958
89	H	0.378765	0.591682	0.744403
90	C	0.384728	0.769488	0
91	C	0.380005	0.776875	0.173283
92	S	0.396892	0.809358	0.197615
93	C	0.410751	0.813668	0.974871
94	C	0.428549	0.838653	0.897199
95	C	0.436781	0.84419	0.70985
96	C	0.454444	0.870675	0.679237
97	C	0.459497	0.88515	0.843308
98	C	0.47659	0.912477	0.860589
99	C	0.495986	0.927958	0.735048
100	C	0.509327	0.954149	0.791726
101	C	0.499939	0.958141	0.960074
102	C	0.508184	0.982022	0.061843
103	C	0.50491	0.001849	0.985803
104	C	0.512919	0.025241	0.081929
105	C	0.525079	0.031084	0.262485
106	C	0.533268	0.055282	0.361622
107	C	0.529957	0.059578	0.55039
108	C	0.540948	0.086088	0.593934
109	C	0.552597	0.101738	0.43814
110	C	0.565698	0.129457	0.435497
111	C	0.57265	0.14546	0.592403
112	C	0.585293	0.171888	0.541908
113	C	0.58787	0.17588	0.346745
114	C	0.599665	0.200007	0.244457
115	C	0.601996	0.203949	0.048519
116	C	0.614738	0.230248	0
117	C	0.621996	0.246065	0.155763
118	S	0.613275	0.228898	0.363371
119	S	0.574651	0.147121	0.228969
120	S	0.549791	0.083602	0.240633
121	C	0.529051	0.011743	0.34669
122	N	0.540263	0.012833	0.515638
123	S	0.540287	0.985554	0.541519
124	N	0.526113	0.970799	0.340979
125	C	0.520475	0.986604	0.243247
126	S	0.474777	0.930359	0.044882
127	S	0.442738	0.86602	0.032321
128	C	0.402202	0.790273	0.88552
129	H	0.367558	0.765017	0.28673
130	H	0.430449	0.830014	0.597342
131	H	0.462818	0.878571	0.541504
132	H	0.500735	0.920925	0.607896
133	H	0.525222	0.969196	0.71338
134	H	0.495564	0.999067	0.847311
135	H	0.509193	0.039267	0.012254
136	H	0.520114	0.044398	0.653853
137	H	0.540207	0.093108	0.734785
138	H	0.56907	0.138766	0.738794
139	H	0.592134	0.187111	0.646589
140	H	0.594871	0.188618	0.94458
141	H	0.631928	0.266726	0.158958
142	H	0.408322	0.788211	0.744403
143	C	0.231393	0.614926	0
144	C	0.224005	0.602881	0.173283
145	S	0.191358	0.587307	0.197615
146	C	0.186976	0.596776	0.974871
147	C	0.161843	0.589571	0.897199
148	C	0.156255	0.592232	0.70985
149	C	0.12962	0.5834	0.679237
150	C	0.115082	0.574005	0.843308
151	C	0.087604	0.563768	0.860589
152	C	0.071995	0.567612	0.735048
153	C	0.045673	0.554781	0.791726
154	C	0.041711	0.541486	0.960074
155	C	0.017727	0.525894	0.061843
156	C	0.997859	0.502904	0.985803
157	C	0.974367	0.487565	0.081929
158	C	0.968455	0.493821	0.262485
159	C	0.944154	0.47786	0.361622
160	C	0.93986	0.470295	0.55039
161	C	0.913228	0.454813	0.593934
162	C	0.897484	0.450797	0.43814
163	C	0.86963	0.436207	0.435497
164	C	0.853552	0.427176	0.592403
165	C	0.826995	0.413416	0.541908
166	C	0.822981	0.411999	0.346745
167	C	0.798735	0.399689	0.244457
168	C	0.794772	0.398079	0.048519
169	C	0.768344	0.384546	0
170	C	0.75245	0.376004	0.155763
171	S	0.769703	0.384436	0.363371
172	S	0.851877	0.427508	0.228969
173	S	0.915682	0.466067	0.240633
174	C	0.987832	0.517022	0.34669
175	N	0.98669	0.527069	0.515638
176	S	0.014046	0.554253	0.541519
177	N	0.028904	0.554871	0.340979
178	C	0.013079	0.533537	0.243247
179	S	0.06968	0.544163	0.044882
180	S	0.134338	0.576411	0.032321
181	C	0.210474	0.611582	0.88552
182	H	0.235951	0.60233	0.28673
183	H	0.170498	0.600059	0.597342
184	H	0.121665	0.583852	0.541504
185	H	0.079027	0.57933	0.607896
186	H	0.030516	0.555583	0.71338
187	H	0.00069	0.496394	0.847311
188	H	0.960318	0.469901	0.012254
189	H	0.955125	0.475636	0.653853
190	H	0.906191	0.447088	0.734785
191	H	0.860281	0.430287	0.738794
192	H	0.8117	0.405051	0.646589
193	H	0.810176	0.406268	0.94458
194	H	0.731689	0.365294	0.158958
195	H	0.212515	0.619711	0.744403
