data_C84H36N6O6S18_2023-05-15_16:40:04
#******************************************
#
# CIF file created by Zeo++
# Zeo++ is an open source package to
# analyze microporous materials
#
#*******************************************

_cell_length_a		52.4007   
_cell_length_b		52.6992   
_cell_length_c		7   
_cell_angle_alpha		90   
_cell_angle_beta		90   
_cell_angle_gamma		119.753   

_symmetry_space_group_name_H-M		'P1'
_symmetry_Int_Tables_number		1
_symmetry_cell_setting		Monoclinic

loop_
_symmetry_equiv_pos_as_xyz
'+x,+y,+z'

loop_
_atom_site_label
_atom_site_type_symbol
_atom_site_fract_x
_atom_site_fract_y
_atom_site_fract_z
1	C	0.362912	0.672851	0.999995
2	O	0.388845	0.677399	0.999991
3	C	0.339469	0.642459	0.999998
4	C	0.344021	0.620057	0
5	N	0.373049	0.625296	0
6	C	0.309479	0.637065	3e-06
7	O	0.288411	0.61087	5e-06
8	C	0.302276	0.660438	6e-06
9	C	0.274677	0.654798	5e-06
10	N	0.251866	0.624994	0
11	C	0.326846	0.690588	4e-06
12	O	0.321122	0.7108	7e-06
13	C	0.35732	0.697337	0.999999
14	C	0.37898	0.724842	0.999998
15	N	0.374628	0.749257	0
16	H	0.326074	0.598249	1e-06
17	H	0.268856	0.671539	8e-06
18	H	0.400888	0.728769	0.999997
19	C	0.637088	0.327149	0.999995
20	O	0.611155	0.322601	0.999991
21	C	0.660531	0.357541	0.999998
22	C	0.655979	0.379943	0
23	N	0.626951	0.374704	0
24	C	0.690521	0.362935	3e-06
25	O	0.711589	0.38913	5e-06
26	C	0.697724	0.339562	6e-06
27	C	0.725323	0.345202	5e-06
28	N	0.748134	0.375006	0
29	C	0.673154	0.309412	4e-06
30	O	0.678878	0.2892	7e-06
31	C	0.64268	0.302663	0.999999
32	C	0.62102	0.275158	0.999998
33	N	0.625372	0.250743	0
34	H	0.673926	0.401751	1e-06
35	H	0.731144	0.328461	8e-06
36	H	0.599112	0.271231	0.999997
37	C	0.390766	0.60781	0
38	C	0.39957	0.599121	0.840809
39	C	0.414884	0.584006	0.891897
40	C	0.417198	0.581723	0.087945
41	C	0.43117	0.567933	0.190225
42	C	0.433461	0.565671	0.385482
43	C	0.448773	0.550559	0.436172
44	C	0.458083	0.54137	0.279321
45	C	0.474185	0.525479	0.276391
46	C	0.483296	0.516486	0.117336
47	C	0.498587	0.501394	0.168661
48	C	0.500824	0.499187	0.360755
49	C	0.516116	0.484093	0.412039
50	C	0.525238	0.475091	0.253021
51	C	0.541354	0.459185	0.255759
52	C	0.550338	0.450318	0.415825
53	C	0.565752	0.435104	0.37065
54	C	0.568453	0.432439	0.176279
55	C	0.582632	0.418446	0.078871
56	C	0.585348	0.415766	0.883685
57	C	0.600761	0.400553	0.837851
58	C	0.609234	0.39219	0
59	S	0.599129	0.402163	0.203157
60	S	0.552035	0.448644	0.052818
61	S	0.515201	0.484998	0.043143
62	S	0.484212	0.515582	0.48642
63	S	0.447845	0.551475	0.072482
64	S	0.40045	0.598252	0.206532
65	H	0.395451	0.603187	0.695516
66	H	0.423737	0.575269	0.787414
67	H	0.424631	0.574387	0.490255
68	H	0.452588	0.546794	0.582913
69	H	0.479465	0.520268	0.970761
70	H	0.519955	0.480304	0.558495
71	H	0.546212	0.45439	0.561069
72	H	0.574364	0.426604	0.478405
73	H	0.576709	0.424293	0.776246
74	H	0.605175	0.396197	0.694007
75	C	0.392082	0.784228	0
76	C	0.400755	0.801607	0.840809
77	C	0.415842	0.831837	0.891897
78	C	0.418122	0.836404	0.087945
79	C	0.431886	0.863983	0.190225
80	C	0.434144	0.868506	0.385482
81	C	0.449228	0.898731	0.436172
82	C	0.4584	0.917108	0.279321
83	C	0.474262	0.948891	0.276391
84	C	0.483238	0.966877	0.117336
85	C	0.498303	0.99706	0.168661
86	C	0.500506	0.001476	0.360755
87	C	0.515572	0.031662	0.412039
88	C	0.524557	0.049667	0.253021
89	C	0.540434	0.081479	0.255759
90	C	0.549285	0.099213	0.415825
91	C	0.564471	0.12964	0.37065
92	C	0.567131	0.134971	0.176279
93	C	0.581099	0.162958	0.078871
94	C	0.583774	0.168318	0.883685
95	C	0.598959	0.198744	0.837851
96	C	0.607307	0.21547	0
97	S	0.597352	0.195523	0.203157
98	S	0.550956	0.102562	0.052818
99	S	0.514669	0.029854	0.043143
100	S	0.484141	0.968684	0.48642
101	S	0.448314	0.896899	0.072482
102	S	0.401622	0.803344	0.206532
103	H	0.396697	0.793476	0.695516
104	H	0.424563	0.849311	0.787414
105	H	0.425444	0.851075	0.490255
106	H	0.452986	0.906261	0.582913
107	H	0.479463	0.959313	0.970761
108	H	0.519354	0.03924	0.558495
109	H	0.545221	0.091069	0.561069
110	H	0.572956	0.14664	0.478405
111	H	0.575262	0.151265	0.776246
112	H	0.603307	0.207456	0.694007
113	C	0.216696	0.607508	0
114	C	0.199219	0.598819	0.840809
115	C	0.168817	0.583704	0.891897
116	C	0.164224	0.58142	0.087945
117	C	0.136488	0.567631	0.190225
118	C	0.131939	0.565369	0.385482
119	C	0.101542	0.550257	0.436172
120	C	0.083061	0.541068	0.279321
121	C	0.051097	0.525177	0.276391
122	C	0.033009	0.516184	0.117336
123	C	0.002654	0.501092	0.168661
124	C	0.998213	0.498885	0.360755
125	C	0.967856	0.483792	0.412039
126	C	0.949748	0.474789	0.253021
127	C	0.917755	0.458883	0.255759
128	C	0.89992	0.450016	0.415825
129	C	0.869321	0.434803	0.37065
130	C	0.863959	0.432137	0.176279
131	C	0.835813	0.418143	0.078871
132	C	0.830422	0.415463	0.883685
133	C	0.799823	0.40025	0.837851
134	C	0.783002	0.391887	0
135	S	0.803063	0.401861	0.203157
136	S	0.896552	0.448341	0.052818
137	S	0.969674	0.484695	0.043143
138	S	0.031191	0.51528	0.48642
139	S	0.103385	0.551173	0.072482
140	S	0.197472	0.59795	0.206532
141	H	0.207395	0.602884	0.695516
142	H	0.151243	0.574967	0.787414
143	H	0.149469	0.574085	0.490255
144	H	0.09397	0.546492	0.582913
145	H	0.040616	0.519966	0.970761
146	H	0.960235	0.480003	0.558495
147	H	0.908111	0.454089	0.561069
148	H	0.852224	0.426303	0.478405
149	H	0.847572	0.423989	0.776246
150	H	0.791062	0.395894	0.694007
