data_C57H30N18O6_2023-05-30_07:02:15
#******************************************
#
# CIF file created by Zeo++
# Zeo++ is an open source package to
# analyze microporous materials
#
#*******************************************

_cell_length_a		35.8354   
_cell_length_b		36.1341   
_cell_length_c		7   
_cell_angle_alpha		90   
_cell_angle_beta		90   
_cell_angle_gamma		119.639   

_symmetry_space_group_name_H-M		'P1'
_symmetry_Int_Tables_number		1
_symmetry_cell_setting		Monoclinic

loop_
_symmetry_equiv_pos_as_xyz
'+x,+y,+z'

loop_
_atom_site_label
_atom_site_type_symbol
_atom_site_fract_x
_atom_site_fract_y
_atom_site_fract_z
1	C	0.376564	0.675677	0.999995
2	O	0.414469	0.682302	0.999991
3	C	0.342387	0.631402	0.999998
4	C	0.349117	0.598767	0
5	N	0.391546	0.606398	0
6	C	0.298551	0.623543	3e-06
7	O	0.267831	0.585382	5e-06
8	C	0.287939	0.657593	6e-06
9	C	0.247602	0.649376	5e-06
10	N	0.214346	0.605958	0
11	C	0.323767	0.701514	4e-06
12	O	0.315329	0.73096	7e-06
13	C	0.368304	0.711346	0.999999
14	C	0.399885	0.751415	0.999998
15	N	0.39344	0.786984	0
16	H	0.322948	0.566997	1e-06
17	H	0.239035	0.673765	8e-06
18	H	0.431906	0.757137	0.999997
19	C	0.623436	0.324323	0.999995
20	O	0.585531	0.317698	0.999991
21	C	0.657613	0.368598	0.999998
22	C	0.650883	0.401233	0
23	N	0.608454	0.393602	0
24	C	0.701449	0.376457	3e-06
25	O	0.732169	0.414618	5e-06
26	C	0.712061	0.342407	6e-06
27	C	0.752398	0.350624	5e-06
28	N	0.785654	0.394042	0
29	C	0.676233	0.298486	4e-06
30	O	0.684671	0.26904	7e-06
31	C	0.631696	0.288654	0.999999
32	C	0.600115	0.248585	0.999998
33	N	0.60656	0.213016	0
34	H	0.677052	0.433003	1e-06
35	H	0.760965	0.326235	8e-06
36	H	0.568094	0.242863	0.999997
37	C	0.417511	0.580926	0
38	C	0.435288	0.563393	0.879262
39	N	0.456046	0.543029	0.94437
40	C	0.45868	0.540539	0.13711
41	C	0.481227	0.518421	0.20726
42	C	0.487779	0.511994	0.391056
43	C	0.512141	0.488095	0.403027
44	C	0.518621	0.481736	0.196626
45	C	0.541046	0.459734	0.128999
46	N	0.544043	0.456764	0.936982
47	C	0.564953	0.436249	0.875824
48	C	0.582489	0.419074	0
49	N	0.579795	0.421747	0.191484
50	C	0.55885	0.442295	0.252056
51	C	0.500608	0.499404	0.088337
52	C	0.44061	0.558361	0.256479
53	N	0.4198	0.578778	0.191877
54	H	0.433516	0.565057	0.725112
55	H	0.477623	0.521953	0.516706
56	H	0.542701	0.50718	0.477325
57	H	0.493049	0.457758	0.477322
58	H	0.567053	0.434164	0.722045
59	H	0.556981	0.444154	0.406092
60	H	0.500084	0.499913	0.933815
61	H	0.442116	0.556965	0.410791
62	C	0.418844	0.837929	0
63	C	0.43633	0.872901	0.879262
64	N	0.45664	0.913629	0.94437
65	C	0.459122	0.918704	0.13711
66	C	0.481181	0.962942	0.20726
67	C	0.487591	0.975798	0.391056
68	C	0.511425	0.023596	0.403027
69	C	0.517767	0.036312	0.196626
70	C	0.53971	0.080314	0.128999
71	N	0.542673	0.086225	0.936982
72	C	0.563132	0.127254	0.875824
73	C	0.58026	0.161632	0
74	N	0.577595	0.156316	0.191484
75	C	0.557102	0.11522	0.252056
76	C	0.500147	0.000973	0.088337
77	C	0.441347	0.883155	0.256479
78	N	0.420985	0.842322	0.191877
79	H	0.434671	0.869498	0.725112
80	H	0.477658	0.955874	0.516706
81	H	0.492029	0.034848	0.477325
82	H	0.542043	0.034848	0.477322
83	H	0.565212	0.131399	0.722045
84	H	0.555248	0.111528	0.406092
85	H	0.49964	0.99995	0.933815
86	H	0.442739	0.88603	0.410791
87	C	0.162978	0.580485	0
88	C	0.127715	0.563046	0.879262
89	N	0.086648	0.542682	0.94437
90	C	0.081531	0.540097	0.13711
91	C	0.036925	0.517977	0.20726
92	C	0.023963	0.511549	0.391056
93	C	0.975767	0.487649	0.403027
94	C	0.962945	0.481292	0.196626
95	C	0.918577	0.459291	0.128999
96	N	0.912617	0.456352	0.936982
97	C	0.871247	0.435837	0.875824
98	C	0.836584	0.418634	0
99	N	0.841943	0.421277	0.191484
100	C	0.883381	0.441825	0.252056
101	C	0.998578	0.498964	0.088337
102	C	0.117375	0.557824	0.256479
103	N	0.158548	0.57824	0.191877
104	H	0.131146	0.564785	0.725112
105	H	0.044052	0.521513	0.516706
106	H	0.964603	0.457312	0.477325
107	H	0.964241	0.506735	0.477322
108	H	0.867068	0.433777	0.722045
109	H	0.887104	0.443658	0.406092
110	H	0.999609	0.499477	0.933815
111	H	0.114477	0.556345	0.410791
