data_C66H36N12O6_2023-05-30_18:01:55
#******************************************
#
# CIF file created by Zeo++
# Zeo++ is an open source package to
# analyze microporous materials
#
#*******************************************

_cell_length_a		37.9769   
_cell_length_b		38.2754   
_cell_length_c		7   
_cell_angle_alpha		90   
_cell_angle_beta		90   
_cell_angle_gamma		119.659   

_symmetry_space_group_name_H-M		'P1'
_symmetry_Int_Tables_number		1
_symmetry_cell_setting		Monoclinic

loop_
_symmetry_equiv_pos_as_xyz
'+x,+y,+z'

loop_
_atom_site_label
_atom_site_type_symbol
_atom_site_fract_x
_atom_site_fract_y
_atom_site_fract_z
1	C	0.37413	0.675174	0.999995
2	O	0.4099	0.68143	0.999991
3	C	0.341863	0.633368	0.999998
4	C	0.348201	0.602553	0
5	N	0.388241	0.609759	0
6	C	0.300496	0.625947	3e-06
7	O	0.271493	0.589914	5e-06
8	C	0.290495	0.658099	6e-06
9	C	0.25243	0.65034	5e-06
10	N	0.221032	0.609343	0
11	C	0.32432	0.699571	4e-06
12	O	0.316369	0.727375	7e-06
13	C	0.36635	0.708855	0.999999
14	C	0.396165	0.74669	0.999998
15	N	0.390097	0.780275	0
16	H	0.323495	0.572554	1e-06
17	H	0.244355	0.673369	8e-06
18	H	0.426383	0.752092	0.999997
19	C	0.62587	0.324826	0.999995
20	O	0.5901	0.31857	0.999991
21	C	0.658137	0.366632	0.999998
22	C	0.651799	0.397447	0
23	N	0.611759	0.390241	0
24	C	0.699504	0.374053	3e-06
25	O	0.728507	0.410086	5e-06
26	C	0.709505	0.341901	6e-06
27	C	0.74757	0.34966	5e-06
28	N	0.778968	0.390657	0
29	C	0.67568	0.300429	4e-06
30	O	0.683631	0.272625	7e-06
31	C	0.63365	0.291145	0.999999
32	C	0.603835	0.25331	0.999998
33	N	0.609903	0.219725	0
34	H	0.676505	0.427446	1e-06
35	H	0.755645	0.326631	8e-06
36	H	0.573617	0.247908	0.999997
37	C	0.587269	0.414294	0
38	C	0.576302	0.425063	0.169892
39	C	0.554878	0.446104	0.164911
40	C	0.543838	0.456947	0.991513
41	C	0.521112	0.479267	0.992454
42	C	0.508857	0.491304	0.829838
43	N	0.488021	0.511767	0.833344
44	C	0.478888	0.520734	0.00755
45	C	0.456162	0.543053	0.00849
46	C	0.445122	0.553896	0.835091
47	C	0.423698	0.574937	0.830109
48	C	0.412731	0.585706	0
49	C	0.423008	0.575613	0.173866
50	C	0.444468	0.554537	0.177695
51	C	0.491143	0.508697	0.170165
52	N	0.51198	0.488235	0.16666
53	C	0.555532	0.445463	0.822307
54	C	0.576992	0.424387	0.826134
55	H	0.584112	0.417391	0.306956
56	H	0.546691	0.454141	0.300609
57	H	0.515176	0.4851	0.686783
58	H	0.453309	0.545858	0.699393
59	H	0.415888	0.582609	0.693045
60	H	0.414546	0.583924	0.307605
61	H	0.451683	0.547452	0.317562
62	H	0.484824	0.5149	0.313221
63	H	0.548317	0.452548	0.682441
64	H	0.585454	0.416076	0.692395
65	C	0.585067	0.171205	0
66	C	0.574325	0.149666	0.169892
67	C	0.553337	0.107584	0.164911
68	C	0.542521	0.085899	0.991513
69	C	0.520259	0.04126	0.992454
70	C	0.508252	0.017188	0.829838
71	N	0.487841	0.976262	0.833344
72	C	0.478897	0.958325	0.00755
73	C	0.456634	0.913686	0.00849
74	C	0.445818	0.892001	0.835091
75	C	0.424831	0.84992	0.830109
76	C	0.414089	0.82838	0
77	C	0.424156	0.848565	0.173866
78	C	0.445179	0.890718	0.177695
79	C	0.490903	0.982397	0.170165
80	N	0.511313	0.023323	0.16666
81	C	0.553976	0.108867	0.822307
82	C	0.574998	0.151019	0.826134
83	H	0.581977	0.165009	0.306956
84	H	0.54532	0.091506	0.300609
85	H	0.51444	0.029597	0.686783
86	H	0.453836	0.908079	0.699393
87	H	0.417178	0.834577	0.693045
88	H	0.415866	0.831944	0.307605
89	H	0.452246	0.904888	0.317562
90	H	0.484715	0.969988	0.313221
91	H	0.546909	0.094697	0.682441
92	H	0.583289	0.167641	0.692395
93	C	0.827035	0.413878	0
94	C	0.848744	0.424648	0.169892
95	C	0.891155	0.445689	0.164911
96	C	0.913011	0.456531	0.991513
97	C	0.958	0.47885	0.992454
98	C	0.982261	0.490885	0.829838
99	N	0.023508	0.511348	0.833344
100	C	0.041586	0.520318	0.00755
101	C	0.086575	0.542638	0.00849
102	C	0.10843	0.55348	0.835091
103	C	0.150842	0.57452	0.830109
104	C	0.17255	0.585291	0
105	C	0.152206	0.575198	0.173866
106	C	0.109723	0.554122	0.177695
107	C	0.017325	0.508283	0.170165
108	N	0.976078	0.487819	0.16666
109	C	0.889863	0.445047	0.822307
110	C	0.84738	0.42397	0.826134
111	H	0.833281	0.416977	0.306956
112	H	0.90736	0.453729	0.300609
113	H	0.969754	0.48468	0.686783
114	H	0.092226	0.545439	0.699393
115	H	0.166305	0.582191	0.693045
116	H	0.168959	0.583509	0.307605
117	H	0.095442	0.547037	0.317562
118	H	0.029832	0.514489	0.313221
119	H	0.904144	0.452132	0.682441
120	H	0.830628	0.41566	0.692395
