data_C69H42N6O6_2023-05-10_21:31:23
#******************************************
#
# CIF file created by Zeo++
# Zeo++ is an open source package to
# analyze microporous materials
#
#*******************************************

_cell_length_a		36.3449   
_cell_length_b		36.6435   
_cell_length_c		7   
_cell_angle_alpha		90   
_cell_angle_beta		90   
_cell_angle_gamma		119.644   

_symmetry_space_group_name_H-M		'P1'
_symmetry_Int_Tables_number		1
_symmetry_cell_setting		Monoclinic

loop_
_symmetry_equiv_pos_as_xyz
'+x,+y,+z'

loop_
_atom_site_label
_atom_site_type_symbol
_atom_site_fract_x
_atom_site_fract_y
_atom_site_fract_z
1	C	0.375959	0.675552	0.999995
2	O	0.413334	0.682085	0.999991
3	C	0.342256	0.63189	0.999998
4	C	0.348889	0.599708	0
5	N	0.390724	0.607233	0
6	C	0.299035	0.62414	3e-06
7	O	0.268741	0.586508	5e-06
8	C	0.288575	0.657719	6e-06
9	C	0.248802	0.649616	5e-06
10	N	0.216008	0.606799	0
11	C	0.323905	0.701032	4e-06
12	O	0.315587	0.730069	7e-06
13	C	0.367819	0.710727	0.999999
14	C	0.398961	0.750241	0.999998
15	N	0.39261	0.785317	0
16	H	0.323083	0.568378	1e-06
17	H	0.240357	0.673667	8e-06
18	H	0.430534	0.755883	0.999997
19	C	0.624041	0.324448	0.999995
20	O	0.586666	0.317915	0.999991
21	C	0.657744	0.36811	0.999998
22	C	0.651111	0.400292	0
23	N	0.609276	0.392767	0
24	C	0.700965	0.37586	3e-06
25	O	0.731259	0.413492	5e-06
26	C	0.711425	0.342281	6e-06
27	C	0.751198	0.350384	5e-06
28	N	0.783992	0.393201	0
29	C	0.676095	0.298968	4e-06
30	O	0.684413	0.269931	7e-06
31	C	0.632181	0.289273	0.999999
32	C	0.601039	0.249759	0.999998
33	N	0.60739	0.214683	0
34	H	0.676917	0.431622	1e-06
35	H	0.759643	0.326333	8e-06
36	H	0.569466	0.244117	0.999997
37	C	0.583677	0.417886	0
38	C	0.545352	0.409057	0.916616
39	C	0.52439	0.430162	0.979425
40	C	0.54151	0.460096	0.125879
41	C	0.519288	0.482129	0.190023
42	C	0.512945	0.487995	0.374004
43	C	0.48864	0.511155	0.387154
44	C	0.482105	0.517839	0.179976
45	C	0.459555	0.539821	0.117415
46	C	0.441197	0.5546	0.251227
47	C	0.419706	0.575588	0.19335
48	C	0.416323	0.582114	0
49	C	0.434226	0.567866	0.864407
50	C	0.455676	0.546891	0.923099
51	C	0.500109	0.50065	0.071254
52	C	0.580157	0.468602	0.207973
53	C	0.601217	0.447578	0.145387
54	H	0.531484	0.385876	0.803338
55	H	0.494331	0.42275	0.913993
56	H	0.52303	0.4774	0.496926
57	H	0.507256	0.540976	0.462492
58	H	0.458524	0.49195	0.46101
59	H	0.443172	0.550066	0.40358
60	H	0.405827	0.586615	0.300426
61	H	0.431801	0.572844	0.712942
62	H	0.469344	0.536297	0.813114
63	H	0.501249	0.500175	0.917273
64	H	0.594379	0.491972	0.32052
65	H	0.631164	0.454679	0.210631
66	C	0.581455	0.16401	0
67	C	0.590599	0.134899	0.916616
68	C	0.569546	0.093228	0.979425
69	C	0.539351	0.080428	0.125879
70	C	0.517374	0.036589	0.190023
71	C	0.511527	0.024496	0.374004
72	C	0.488433	0.977481	0.387154
73	C	0.481764	0.964385	0.179976
74	C	0.459843	0.920274	0.117415
75	C	0.445126	0.887458	0.251227
76	C	0.424195	0.845379	0.19335
77	C	0.417663	0.835556	0
78	C	0.431848	0.867396	0.864407
79	C	0.452767	0.909421	0.923099
80	C	0.498904	0.999245	0.071254
81	C	0.530529	0.110178	0.207973
82	C	0.5515	0.151866	0.145387
83	H	0.613987	0.144208	0.803338
84	H	0.577207	0.070879	0.913993
85	H	0.522098	0.044983	0.496926
86	H	0.458341	0.966271	0.462492
87	H	0.507942	0.966784	0.46101
88	H	0.449667	0.89391	0.40358
89	H	0.413216	0.820714	0.300426
90	H	0.426865	0.860057	0.712942
91	H	0.463313	0.933448	0.813114
92	H	0.499374	0.000844	0.917273
93	H	0.506949	0.101031	0.32052
94	H	0.544152	0.174413	0.210631
95	C	0.83421	0.417452	0
96	C	0.863391	0.455393	0.916616
97	C	0.905406	0.47596	0.979425
98	C	0.918481	0.458825	0.125879
99	C	0.96268	0.480631	0.190023
100	C	0.974871	0.486858	0.374004
101	C	0.022269	0.510713	0.387154
102	C	0.035473	0.517125	0.179976
103	C	0.079945	0.539255	0.117415
104	C	0.113019	0.557292	0.251227
105	C	0.155442	0.578383	0.19335
106	C	0.165357	0.581679	0
107	C	0.133268	0.564087	0.864407
108	C	0.090899	0.543038	0.923099
109	C	0.000329	0.499453	0.071254
110	C	0.888656	0.420569	0.207973
111	C	0.846626	0.399906	0.145387
112	H	0.853872	0.469266	0.803338
113	H	0.927804	0.50572	0.913993
114	H	0.954214	0.476966	0.496926
115	H	0.033745	0.492102	0.462492
116	H	0.032876	0.540615	0.46101
117	H	0.106504	0.555372	0.40358
118	H	0.1803	0.592021	0.300426
119	H	0.140677	0.566448	0.712942
120	H	0.066685	0.529604	0.813114
121	H	0.99872	0.49833	0.917273
122	H	0.898014	0.406346	0.32052
123	H	0.824026	0.370257	0.210631
