data_C108H54N6O6S18_2023-05-13_07:33:31
#******************************************
#
# CIF file created by Zeo++
# Zeo++ is an open source package to
# analyze microporous materials
#
#*******************************************

_cell_length_a		58.6246   
_cell_length_b		58.923   
_cell_length_c		7   
_cell_angle_alpha		90   
_cell_angle_beta		90   
_cell_angle_gamma		119.779   

_symmetry_space_group_name_H-M		'P1'
_symmetry_Int_Tables_number		1
_symmetry_cell_setting		Monoclinic

loop_
_symmetry_equiv_pos_as_xyz
'+x,+y,+z'

loop_
_atom_site_label
_atom_site_type_symbol
_atom_site_fract_x
_atom_site_fract_y
_atom_site_fract_z
1	C	0.359775	0.6722	0.999995
2	O	0.382957	0.676268	0.999991
3	C	0.338807	0.64501	0.999998
4	C	0.342864	0.62497	0
5	N	0.368813	0.629656	0
6	C	0.311998	0.640185	3e-06
7	O	0.293153	0.61675	5e-06
8	C	0.30557	0.661095	6e-06
9	C	0.280899	0.656049	5e-06
10	N	0.260495	0.629386	0
11	C	0.327547	0.688067	4e-06
12	O	0.322439	0.706149	7e-06
13	C	0.354788	0.694104	0.999999
14	C	0.374162	0.71871	0.999998
15	N	0.370283	0.740553	0
16	H	0.326813	0.60546	1e-06
17	H	0.275704	0.671026	8e-06
18	H	0.393745	0.722224	0.999997
19	C	0.640225	0.3278	0.999995
20	O	0.617043	0.323732	0.999991
21	C	0.661193	0.35499	0.999998
22	C	0.657136	0.37503	0
23	N	0.631187	0.370344	0
24	C	0.688002	0.359815	3e-06
25	O	0.706847	0.38325	5e-06
26	C	0.69443	0.338905	6e-06
27	C	0.719101	0.343951	5e-06
28	N	0.739505	0.370614	0
29	C	0.672453	0.311933	4e-06
30	O	0.677561	0.293851	7e-06
31	C	0.645212	0.305896	0.999999
32	C	0.625838	0.28129	0.999998
33	N	0.629717	0.259447	0
34	H	0.673187	0.39454	1e-06
35	H	0.724296	0.328974	8e-06
36	H	0.606255	0.277776	0.999997
37	C	0.615359	0.385987	0
38	C	0.615093	0.384218	0.195078
39	C	0.602354	0.397096	0.278914
40	C	0.593386	0.408205	0.144874
41	C	0.579674	0.422654	0.177993
42	C	0.571813	0.434731	0.045
43	C	0.558719	0.447228	0.128896
44	C	0.556667	0.444612	0.325399
45	C	0.544701	0.454699	0.456799
46	C	0.54285	0.452284	0.653685
47	C	0.529764	0.464774	0.737528
48	C	0.521619	0.476421	0.603473
49	C	0.507947	0.491306	0.634192
50	C	0.48628	0.486989	0.523012
51	C	0.473359	0.501235	0.555507
52	C	0.481772	0.520163	0.699983
53	C	0.468331	0.535132	0.737513
54	C	0.461396	0.541104	0.911077
55	C	0.448802	0.556375	0.891051
56	C	0.44636	0.561921	0.702589
57	C	0.434715	0.577095	0.634382
58	C	0.430968	0.594907	0.738618
59	C	0.41875	0.606468	0.630334
60	C	0.413276	0.597353	0.444535
61	C	0.400818	0.605	0.299042
62	C	0.385972	0.617106	0.328609
63	C	0.376545	0.622303	0.155259
64	C	0.384641	0.614013	0
65	S	0.403094	0.600314	0.058345
66	S	0.423029	0.574677	0.406301
67	S	0.45975	0.548529	0.553177
68	C	0.503335	0.524346	0.811966
69	C	0.516251	0.510101	0.779523
70	S	0.530288	0.472263	0.378038
71	S	0.570841	0.426847	0.403507
72	S	0.600786	0.402606	0.917296
73	H	0.623446	0.37436	0.274998
74	H	0.600018	0.398042	0.431759
75	H	0.575179	0.434842	0.892735
76	H	0.551246	0.457664	0.046052
77	H	0.550513	0.442028	0.736577
78	H	0.526369	0.464975	0.889504
79	H	0.478978	0.4723	0.410595
80	H	0.456464	0.497123	0.467138
81	H	0.464957	0.534634	0.047049
82	H	0.441733	0.562761	0.010965
83	H	0.436865	0.599769	0.886378
84	H	0.414437	0.620995	0.687709
85	H	0.381791	0.621978	0.468658
86	H	0.364569	0.631549	0.147188
87	H	0.510541	0.538994	0.924635
88	H	0.533102	0.514092	0.86794
89	C	0.613553	0.227892	0
90	C	0.615328	0.229388	0.195078
91	C	0.60247	0.203921	0.278914
92	C	0.591369	0.183958	0.144874
93	C	0.57694	0.155962	0.177993
94	C	0.564863	0.136134	0.045
95	C	0.552389	0.110694	0.128896
96	C	0.555021	0.111261	0.325399
97	C	0.544959	0.08934	0.456799
98	C	0.547389	0.089907	0.653685
99	C	0.534922	0.064482	0.737528
100	C	0.523277	0.0448	0.603473
101	C	0.50841	0.016409	0.634192
102	C	0.512836	0.999199	0.523012
103	C	0.498607	0.972188	0.555507
104	C	0.479587	0.961697	0.699983
105	C	0.464635	0.933451	0.737513
106	C	0.458677	0.920621	0.911077
107	C	0.443418	0.892915	0.891051
108	C	0.437867	0.884969	0.702589
109	C	0.422702	0.858303	0.634382
110	C	0.404855	0.83685	0.738618
111	C	0.393316	0.813211	0.630334
112	C	0.402481	0.816852	0.444535
113	C	0.394867	0.796871	0.299042
114	C	0.382793	0.770081	0.328609
115	C	0.377623	0.755548	0.155259
116	C	0.3859	0.771838	0
117	S	0.399557	0.803795	0.058345
118	S	0.425179	0.849109	0.406301
119	S	0.451238	0.911595	0.553177
120	C	0.475297	0.978938	0.811966
121	C	0.489525	0.005942	0.779523
122	S	0.527409	0.057547	0.378038
123	S	0.572774	0.143018	0.403507
124	S	0.596951	0.196879	0.917296
125	H	0.625177	0.247495	0.274998
126	H	0.601532	0.200661	0.431759
127	H	0.564737	0.139366	0.892735
128	H	0.541956	0.092886	0.046052
129	H	0.55764	0.107725	0.736577
130	H	0.534735	0.060911	0.889504
131	H	0.5276	0.006573	0.410595
132	H	0.502806	0.959509	0.467138
133	H	0.465149	0.930596	0.047049
134	H	0.437046	0.87954	0.010965
135	H	0.399954	0.837864	0.886378
136	H	0.378766	0.794467	0.687709
137	H	0.377926	0.761081	0.468658
138	H	0.368404	0.734456	0.147188
139	H	0.460574	0.971509	0.924635
140	H	0.485447	0.018698	0.86794
141	C	0.770679	0.385716	0
142	C	0.769171	0.385988	0.195078
143	C	0.794768	0.398578	0.278914
144	C	0.814837	0.407431	0.144874
145	C	0.842978	0.420979	0.177993
146	C	0.862916	0.428729	0.045
147	C	0.888484	0.441673	0.128896
148	C	0.887904	0.443721	0.325399
149	C	0.909932	0.455555	0.456799
150	C	0.909354	0.457404	0.653685
151	C	0.934906	0.470338	0.737528
152	C	0.954697	0.478373	0.603473
153	C	0.983235	0.491879	0.634192
154	C	0.000475	0.513407	0.523012
155	C	0.027626	0.526172	0.555507
156	C	0.038232	0.517735	0.699983
157	C	0.066625	0.531012	0.737513
158	C	0.079519	0.53787	0.911077
159	C	0.107371	0.550304	0.891051
160	C	0.115365	0.552704	0.702589
161	C	0.142175	0.564197	0.634382
162	C	0.163769	0.567838	0.738618
163	C	0.187526	0.579915	0.630334
164	C	0.183835	0.58539	0.444535
165	C	0.203907	0.597723	0.299042
166	C	0.230827	0.612407	0.328609
167	C	0.245424	0.621743	0.155259
168	C	0.229051	0.613743	0
169	S	0.196941	0.595485	0.058345
170	S	0.151384	0.575808	0.406301
171	S	0.088604	0.539471	0.553177
172	C	0.020961	0.496311	0.811966
173	C	0.993816	0.483552	0.779523
174	S	0.941895	0.469785	0.378038
175	S	0.855977	0.42973	0.403507
176	S	0.801855	0.40011	0.917296
177	H	0.750969	0.37774	0.274998
178	H	0.798041	0.400892	0.431759
179	H	0.859676	0.425387	0.892735
180	H	0.90639	0.449045	0.046052
181	H	0.891439	0.449842	0.736577
182	H	0.938488	0.473708	0.889504
183	H	0.993014	0.520722	0.410595
184	H	0.040322	0.542962	0.467138
185	H	0.069486	0.534364	0.047049
186	H	0.120814	0.557294	0.010965
187	H	0.162773	0.561962	0.886378
188	H	0.206389	0.584133	0.687709
189	H	0.239875	0.616536	0.468658
190	H	0.266618	0.63359	0.147188
191	H	0.028477	0.489092	0.924635
192	H	0.981042	0.466805	0.86794
