data_C60H24N6O6S12_2023-05-13_07:53:07
#******************************************
#
# CIF file created by Zeo++
# Zeo++ is an open source package to
# analyze microporous materials
#
#*******************************************

_cell_length_a		37.6344   
_cell_length_b		37.933   
_cell_length_c		7   
_cell_angle_alpha		90   
_cell_angle_beta		90   
_cell_angle_gamma		119.656   

_symmetry_space_group_name_H-M		'P1'
_symmetry_Int_Tables_number		1
_symmetry_cell_setting		Monoclinic

loop_
_symmetry_equiv_pos_as_xyz
'+x,+y,+z'

loop_
_atom_site_label
_atom_site_type_symbol
_atom_site_fract_x
_atom_site_fract_y
_atom_site_fract_z
1	C	0.374501	0.675251	0.999995
2	O	0.410596	0.681563	0.999991
3	C	0.341942	0.633068	0.999998
4	C	0.34834	0.601976	0
5	N	0.388744	0.609247	0
6	C	0.3002	0.625581	3e-06
7	O	0.270936	0.589224	5e-06
8	C	0.290106	0.658022	6e-06
9	C	0.251695	0.650193	5e-06
10	N	0.220014	0.608827	0
11	C	0.324236	0.699867	4e-06
12	O	0.31621	0.727921	7e-06
13	C	0.366647	0.709235	0.999999
14	C	0.396732	0.74741	0.999998
15	N	0.390607	0.781297	0
16	H	0.323411	0.571708	1e-06
17	H	0.243545	0.67343	8e-06
18	H	0.427224	0.752861	0.999997
19	C	0.625499	0.324749	0.999995
20	O	0.589404	0.318437	0.999991
21	C	0.658058	0.366932	0.999998
22	C	0.65166	0.398024	0
23	N	0.611256	0.390753	0
24	C	0.6998	0.374419	3e-06
25	O	0.729064	0.410776	5e-06
26	C	0.709894	0.341978	6e-06
27	C	0.748305	0.349807	5e-06
28	N	0.779986	0.391173	0
29	C	0.675764	0.300133	4e-06
30	O	0.68379	0.272079	7e-06
31	C	0.633353	0.290765	0.999999
32	C	0.603268	0.25259	0.999998
33	N	0.609393	0.218703	0
34	H	0.676589	0.428292	1e-06
35	H	0.756455	0.32657	8e-06
36	H	0.572776	0.247139	0.999997
37	C	0.586541	0.415022	0
38	C	0.580019	0.421426	0.186125
39	C	0.557957	0.44309	0.197523
40	C	0.548668	0.452212	0.019893
41	C	0.524648	0.475798	0.979138
42	C	0.516667	0.483636	0.796884
43	S	0.490358	0.509471	0.786467
44	C	0.488872	0.510928	0.036173
45	C	0.508289	0.491861	0.117804
46	S	0.506756	0.493366	0.367492
47	C	0.480438	0.519209	0.357044
48	C	0.472498	0.527006	0.17475
49	C	0.448521	0.550549	0.132392
50	C	0.433462	0.565335	0.272791
51	C	0.413021	0.585407	0.19567
52	C	0.413459	0.584978	0
53	S	0.437667	0.561209	0.909538
54	S	0.566885	0.434324	0.841092
55	H	0.590249	0.411379	0.308537
56	H	0.549808	0.451091	0.332157
57	H	0.525069	0.475386	0.663353
58	H	0.472052	0.527444	0.49052
59	H	0.436619	0.562235	0.424631
60	H	0.399015	0.599161	0.280259
61	C	0.584334	0.169747	0
62	C	0.577947	0.156939	0.186125
63	C	0.556339	0.113612	0.197523
64	C	0.547239	0.095367	0.019893
65	C	0.523714	0.048196	0.979138
66	C	0.515896	0.032521	0.796884
67	S	0.490127	0.980852	0.786467
68	C	0.488674	0.977936	0.036173
69	C	0.507692	0.016069	0.117804
70	S	0.50619	0.013058	0.367492
71	C	0.480414	0.961373	0.357044
72	C	0.472637	0.945779	0.17475
73	C	0.449154	0.898692	0.132392
74	C	0.434406	0.86912	0.272791
75	C	0.414385	0.828975	0.19567
76	C	0.414813	0.829834	0
77	S	0.438522	0.877374	0.909538
78	S	0.565081	0.131143	0.841092
79	H	0.587968	0.177031	0.308537
80	H	0.548357	0.097608	0.332157
81	H	0.524125	0.049021	0.663353
82	H	0.472201	0.944903	0.49052
83	H	0.437498	0.875319	0.424631
84	H	0.400667	0.801468	0.280259
85	C	0.828489	0.414602	0
86	C	0.841399	0.421007	0.186125
87	C	0.885069	0.44267	0.197523
88	C	0.903458	0.451792	0.019893
89	C	0.951003	0.475378	0.979138
90	C	0.966802	0.483215	0.796884
91	S	0.01888	0.509049	0.786467
92	C	0.021819	0.510507	0.036173
93	C	0.983384	0.491441	0.117804
94	S	0.986419	0.492947	0.367492
95	C	0.038513	0.518789	0.357044
96	C	0.05423	0.526586	0.17475
97	C	0.10169	0.55013	0.132392
98	C	0.131496	0.564916	0.272791
99	C	0.171958	0.584989	0.19567
100	C	0.171093	0.584559	0
101	S	0.123176	0.560788	0.909538
102	S	0.867398	0.433903	0.841092
103	H	0.821148	0.410961	0.308537
104	H	0.901199	0.450672	0.332157
105	H	0.950171	0.474964	0.663353
106	H	0.055113	0.527024	0.49052
107	H	0.125248	0.561817	0.424631
108	H	0.199684	0.598742	0.280259
