data_C66H36N12O6S3_2023-05-10_22:05:28
#******************************************
#
# CIF file created by Zeo++
# Zeo++ is an open source package to
# analyze microporous materials
#
#*******************************************

_cell_length_a		36.0929   
_cell_length_b		36.3915   
_cell_length_c		7   
_cell_angle_alpha		90   
_cell_angle_beta		90   
_cell_angle_gamma		119.642   

_symmetry_space_group_name_H-M		'P1'
_symmetry_Int_Tables_number		1
_symmetry_cell_setting		Monoclinic

loop_
_symmetry_equiv_pos_as_xyz
'+x,+y,+z'

loop_
_atom_site_label
_atom_site_type_symbol
_atom_site_fract_x
_atom_site_fract_y
_atom_site_fract_z
1	C	0.376257	0.675613	0.999995
2	O	0.413891	0.682192	0.999991
3	C	0.34232	0.63165	0.999998
4	C	0.349001	0.599245	0
5	N	0.391128	0.606823	0
6	C	0.298797	0.623847	3e-06
7	O	0.268294	0.585955	5e-06
8	C	0.288263	0.657657	6e-06
9	C	0.248213	0.649498	5e-06
10	N	0.215192	0.606386	0
11	C	0.323837	0.701269	4e-06
12	O	0.31546	0.730507	7e-06
13	C	0.368057	0.711032	0.999999
14	C	0.399415	0.750818	0.999998
15	N	0.393018	0.786135	0
16	H	0.323017	0.5677	1e-06
17	H	0.239708	0.673715	8e-06
18	H	0.431208	0.756499	0.999997
19	C	0.623743	0.324387	0.999995
20	O	0.586109	0.317808	0.999991
21	C	0.65768	0.36835	0.999998
22	C	0.650999	0.400755	0
23	N	0.608872	0.393177	0
24	C	0.701203	0.376153	3e-06
25	O	0.731706	0.414045	5e-06
26	C	0.711737	0.342343	6e-06
27	C	0.751787	0.350502	5e-06
28	N	0.784808	0.393614	0
29	C	0.676163	0.298731	4e-06
30	O	0.68454	0.269493	7e-06
31	C	0.631943	0.288968	0.999999
32	C	0.600585	0.249182	0.999998
33	N	0.606982	0.213865	0
34	H	0.676983	0.4323	1e-06
35	H	0.760292	0.326285	8e-06
36	H	0.568792	0.243501	0.999997
37	C	0.416906	0.58153	0
38	C	0.415445	0.582016	0.190624
39	C	0.436931	0.560712	0.266525
40	C	0.451898	0.546852	0.123692
41	C	0.475661	0.5237	0.131937
42	C	0.488561	0.511167	0.965438
43	C	0.511478	0.488872	0.965436
44	C	0.524383	0.476343	0.131933
45	C	0.548153	0.453199	0.123688
46	C	0.56322	0.439439	0.266514
47	C	0.584674	0.418103	0.190616
48	C	0.583094	0.41847	0
49	C	0.559793	0.440762	0.935415
50	C	0.51243	0.487941	0.306993
51	N	0.520506	0.48002	0.485439
52	S	0.5	0.5	0.635829
53	N	0.479508	0.519993	0.485443
54	C	0.487602	0.51209	0.306995
55	C	0.440153	0.559184	0.935412
56	H	0.400798	0.595867	0.277202
57	H	0.43961	0.557337	0.418336
58	H	0.480781	0.518731	0.825567
59	H	0.519262	0.481312	0.825564
60	H	0.560638	0.442912	0.418317
61	H	0.599384	0.404314	0.277188
62	H	0.580574	0.468681	0.849795
63	H	0.531226	0.419449	0.853775
64	H	0.419316	0.531216	0.850187
65	H	0.468674	0.580443	0.85337
66	C	0.418243	0.836722	0
67	C	0.417766	0.834795	0.190624
68	C	0.439015	0.877179	0.266525
69	C	0.452831	0.905731	0.123692
70	C	0.47592	0.952199	0.131937
71	C	0.488419	0.977391	0.965438
72	C	0.510653	0.022172	0.965436
73	C	0.523147	0.047365	0.131933
74	C	0.546228	0.093833	0.123688
75	C	0.559944	0.122384	0.266514
76	C	0.581226	0.164768	0.190616
77	C	0.580868	0.162842	0
78	C	0.558639	0.117684	0.935415
79	C	0.511581	0.024038	0.306993
80	N	0.519481	0.039883	0.485439
81	S	0.499556	0.999783	0.635829
82	N	0.479617	0.959682	0.485443
83	C	0.487498	0.975526	0.306995
84	C	0.440526	0.88188	0.935412
85	H	0.403955	0.806569	0.277202
86	H	0.442386	0.883178	0.418336
87	H	0.480875	0.962193	0.825567
88	H	0.518192	0.037371	0.825564
89	H	0.556474	0.116384	0.418317
90	H	0.594972	0.192994	0.277188
91	H	0.53044	0.110502	0.849795
92	H	0.580257	0.110611	0.853775
93	H	0.468774	0.889055	0.850187
94	H	0.418963	0.88896	0.85337
95	C	0.164188	0.581093	0
96	C	0.166127	0.582534	0.190624
97	C	0.123392	0.561454	0.266525
98	C	0.094609	0.546762	0.123692
99	C	0.047757	0.523445	0.131937
100	C	0.022357	0.510787	0.965438
101	C	0.977207	0.4883	0.965436
102	C	0.951808	0.475637	0.131933
103	C	0.904956	0.452313	0.123688
104	C	0.876174	0.437522	0.266514
105	C	0.833438	0.416474	0.190616
106	C	0.835376	0.418033	0
107	C	0.880905	0.440899	0.935415
108	C	0.975327	0.487366	0.306993
109	N	0.959351	0.479442	0.485439
110	S	0.999781	0.499562	0.635829
111	N	0.040212	0.51967	0.485443
112	C	0.024238	0.511728	0.306995
113	C	0.118659	0.558281	0.935412
114	H	0.194584	0.596909	0.277202
115	H	0.117341	0.55883	0.418336
116	H	0.037681	0.518421	0.825567
117	H	0.961884	0.480662	0.825564
118	H	0.882226	0.440049	0.418317
119	H	0.804982	0.402036	0.277188
120	H	0.888324	0.420162	0.849795
121	H	0.887855	0.469284	0.853775
122	H	0.111247	0.579074	0.850187
123	H	0.111701	0.529942	0.85337
