data_C72H36N12O6S6_2023-05-30_10:04:55
#******************************************
#
# CIF file created by Zeo++
# Zeo++ is an open source package to
# analyze microporous materials
#
#*******************************************

_cell_length_a		43.4626   
_cell_length_b		43.7612   
_cell_length_c		7   
_cell_angle_alpha		90   
_cell_angle_beta		90   
_cell_angle_gamma		119.702   

_symmetry_space_group_name_H-M		'P1'
_symmetry_Int_Tables_number		1
_symmetry_cell_setting		Monoclinic

loop_
_symmetry_equiv_pos_as_xyz
'+x,+y,+z'

loop_
_atom_site_label
_atom_site_type_symbol
_atom_site_fract_x
_atom_site_fract_y
_atom_site_fract_z
1	C	0.368988	0.674111	0.999995
2	O	0.400247	0.679585	0.999991
3	C	0.340761	0.63753	0.999998
4	C	0.346276	0.610566	0
5	N	0.381267	0.616871	0
6	C	0.30461	0.631037	3e-06
7	O	0.279241	0.599507	5e-06
8	C	0.295896	0.65917	6e-06
9	C	0.262629	0.652381	5e-06
10	N	0.235164	0.616508	0
11	C	0.325483	0.695459	4e-06
12	O	0.318556	0.719787	7e-06
13	C	0.362214	0.703582	0.999999
14	C	0.388295	0.736688	0.999998
15	N	0.383019	0.766076	0
16	H	0.324666	0.584317	1e-06
17	H	0.255591	0.672532	8e-06
18	H	0.414703	0.741415	0.999997
19	C	0.631012	0.325889	0.999995
20	O	0.599753	0.320415	0.999991
21	C	0.659239	0.36247	0.999998
22	C	0.653724	0.389434	0
23	N	0.618733	0.383129	0
24	C	0.69539	0.368963	3e-06
25	O	0.720759	0.400493	5e-06
26	C	0.704104	0.34083	6e-06
27	C	0.737371	0.347619	5e-06
28	N	0.764836	0.383492	0
29	C	0.674517	0.304541	4e-06
30	O	0.681444	0.280213	7e-06
31	C	0.637786	0.296418	0.999999
32	C	0.611705	0.263312	0.999998
33	N	0.616981	0.233924	0
34	H	0.675334	0.415683	1e-06
35	H	0.744409	0.327468	8e-06
36	H	0.585297	0.258585	0.999997
37	C	0.597351	0.404175	0
38	C	0.599779	0.401791	0.193732
39	S	0.579778	0.421483	0.310715
40	C	0.567584	0.433478	0.10092
41	C	0.547804	0.452948	0.103094
42	C	0.537581	0.46301	0.270142
43	C	0.51885	0.481447	0.262359
44	C	0.510131	0.49003	0.086315
45	C	0.490299	0.509551	0.064024
46	C	0.478351	0.521318	0.21682
47	C	0.459886	0.539493	0.182623
48	C	0.453127	0.54614	0.996465
49	C	0.43365	0.565312	0.959603
50	C	0.419628	0.579112	0.08973
51	C	0.402649	0.595825	0
52	C	0.403615	0.594875	0.804816
53	S	0.425298	0.573533	0.729378
54	C	0.466002	0.533461	0.853034
55	N	0.483953	0.515791	0.882286
56	N	0.519872	0.480443	0.922641
57	C	0.537982	0.462617	0.934301
58	C	0.579112	0.422126	0.945318
59	H	0.612196	0.389571	0.272721
60	H	0.543797	0.45689	0.410445
61	H	0.511568	0.488613	0.396159
62	H	0.482882	0.516864	0.363847
63	H	0.451033	0.548212	0.305583
64	H	0.421432	0.577336	0.243139
65	H	0.392785	0.605536	0.702573
66	H	0.462508	0.536895	0.7024
67	H	0.544383	0.456318	0.795064
68	H	0.574699	0.426465	0.797987
69	C	0.595244	0.191469	0
70	C	0.597623	0.196242	0.193732
71	S	0.577974	0.156863	0.310715
72	C	0.566006	0.132865	0.10092
73	C	0.546579	0.093925	0.103094
74	C	0.536539	0.0738	0.270142
75	C	0.518143	0.036926	0.262359
76	C	0.50958	0.019761	0.086315
77	C	0.490101	0.980719	0.064024
78	C	0.47836	0.957191	0.21682
79	C	0.460226	0.92084	0.182623
80	C	0.453594	0.90754	0.996465
81	C	0.434464	0.869196	0.959603
82	C	0.420694	0.841594	0.08973
83	C	0.404018	0.808168	0
84	C	0.404966	0.81007	0.804816
85	S	0.426261	0.852754	0.729378
86	C	0.466245	0.932893	0.853034
87	N	0.483875	0.968232	0.882286
88	N	0.519145	0.038935	0.922641
89	C	0.536931	0.074588	0.934301
90	C	0.577332	0.155564	0.945318
91	H	0.609816	0.220686	0.272721
92	H	0.542646	0.086039	0.410445
93	H	0.510993	0.022593	0.396159
94	H	0.482805	0.966105	0.363847
95	H	0.451526	0.903407	0.305583
96	H	0.422467	0.845146	0.243139
97	H	0.394329	0.788748	0.702573
98	H	0.462818	0.926019	0.7024
99	H	0.543216	0.087188	0.795064
100	H	0.573003	0.146881	0.797987
101	C	0.806855	0.403811	0
102	C	0.802048	0.401421	0.193732
103	S	0.841698	0.421109	0.310715
104	C	0.86586	0.433112	0.10092
105	C	0.905067	0.452582	0.103094
106	C	0.92533	0.462645	0.270142
107	C	0.962457	0.481082	0.262359
108	C	0.979739	0.489664	0.086315
109	C	0.019049	0.509185	0.064024
110	C	0.042738	0.520946	0.21682
111	C	0.079338	0.539122	0.182623
112	C	0.09273	0.545775	0.996465
113	C	0.131336	0.564947	0.959603
114	C	0.159127	0.578748	0.08973
115	C	0.192783	0.595461	0
116	C	0.190868	0.59451	0.804816
117	S	0.147891	0.573167	0.729378
118	C	0.067203	0.533101	0.853034
119	N	0.031621	0.515432	0.882286
120	N	0.960434	0.480076	0.922641
121	C	0.924536	0.462249	0.934301
122	C	0.843005	0.421764	0.945318
123	H	0.777437	0.389198	0.272721
124	H	0.913007	0.456526	0.410445
125	H	0.976888	0.488249	0.396159
126	H	0.033763	0.516486	0.363847
127	H	0.096891	0.547836	0.305583
128	H	0.155551	0.576973	0.243139
129	H	0.212336	0.605171	0.702573
130	H	0.074124	0.53654	0.7024
131	H	0.911851	0.455949	0.795064
132	H	0.851748	0.426108	0.797987
