data_C108H54N6O6S18_2023-05-13_03:24:01
#******************************************
#
# CIF file created by Zeo++
# Zeo++ is an open source package to
# analyze microporous materials
#
#*******************************************

_cell_length_a		57.587   
_cell_length_b		57.8855   
_cell_length_c		7   
_cell_angle_alpha		90   
_cell_angle_beta		90   
_cell_angle_gamma		119.775   

_symmetry_space_group_name_H-M		'P1'
_symmetry_Int_Tables_number		1
_symmetry_cell_setting		Monoclinic

loop_
_symmetry_equiv_pos_as_xyz
'+x,+y,+z'

loop_
_atom_site_label
_atom_site_type_symbol
_atom_site_fract_x
_atom_site_fract_y
_atom_site_fract_z
1	C	0.360251	0.672299	0.999995
2	O	0.38385	0.67644	0.999991
3	C	0.338907	0.644623	0.999998
4	C	0.343039	0.624224	0
5	N	0.369455	0.628994	0
6	C	0.311615	0.639711	3e-06
7	O	0.292434	0.615857	5e-06
8	C	0.30507	0.660995	6e-06
9	C	0.279955	0.655859	5e-06
10	N	0.259186	0.628719	0
11	C	0.327441	0.688449	4e-06
12	O	0.32224	0.706855	7e-06
13	C	0.355172	0.694595	0.999999
14	C	0.374893	0.719641	0.999998
15	N	0.370943	0.741874	0
16	H	0.3267	0.604365	1e-06
17	H	0.274665	0.671104	8e-06
18	H	0.394829	0.723217	0.999997
19	C	0.639749	0.327701	0.999995
20	O	0.61615	0.32356	0.999991
21	C	0.661093	0.355377	0.999998
22	C	0.656961	0.375776	0
23	N	0.630545	0.371006	0
24	C	0.688385	0.360289	3e-06
25	O	0.707566	0.384143	5e-06
26	C	0.69493	0.339005	6e-06
27	C	0.720045	0.344141	5e-06
28	N	0.740814	0.371281	0
29	C	0.672559	0.311551	4e-06
30	O	0.67776	0.293145	7e-06
31	C	0.644828	0.305405	0.999999
32	C	0.625107	0.280359	0.999998
33	N	0.629057	0.258126	0
34	H	0.6733	0.395635	1e-06
35	H	0.725335	0.328896	8e-06
36	H	0.605171	0.276783	0.999997
37	C	0.385569	0.613072	0
38	C	0.376931	0.623561	0.139814
39	C	0.383169	0.617853	0.325239
40	C	0.396323	0.603241	0.320077
41	C	0.405611	0.593959	0.479483
42	C	0.41919	0.579797	0.47407
43	C	0.425309	0.573833	0.659116
44	C	0.440554	0.558008	0.698984
45	C	0.446393	0.552349	0.877859
46	C	0.460353	0.537761	0.868776
47	C	0.464649	0.53252	0.683389
48	C	0.478456	0.518435	0.616944
49	C	0.46787	0.49934	0.47133
50	C	0.481221	0.485951	0.410998
51	C	0.505497	0.491325	0.494707
52	C	0.519691	0.477357	0.434479
53	C	0.531289	0.466193	0.546881
54	C	0.543731	0.454565	0.436982
55	C	0.541459	0.457332	0.243516
56	C	0.553193	0.446629	0.085027
57	C	0.550742	0.449669	0.892437
58	S	0.565512	0.436004	0.757149
59	C	0.575597	0.425611	0.954805
60	C	0.590386	0.411453	0.937397
61	C	0.599429	0.405204	0.772184
62	C	0.613367	0.390993	0.808324
63	C	0.614431	0.386928	0
64	S	0.599212	0.399722	0.135059
65	C	0.567512	0.432775	0.120288
66	S	0.524403	0.473812	0.196623
67	C	0.515976	0.510266	0.641334
68	C	0.502629	0.523649	0.701686
69	S	0.451922	0.545749	0.522865
70	C	0.416176	0.583684	0.801435
71	S	0.400499	0.599838	0.712435
72	S	0.400814	0.596746	0.08656
73	H	0.366725	0.634702	0.113123
74	H	0.378093	0.624341	0.456056
75	H	0.424605	0.573875	0.342185
76	H	0.441103	0.558197	0.010428
77	H	0.466747	0.531257	0.993235
78	H	0.44894	0.494408	0.403935
79	H	0.47221	0.471085	0.298769
80	H	0.530752	0.466155	0.701606
81	H	0.553764	0.444774	0.499404
82	H	0.541027	0.459252	0.822471
83	H	0.596314	0.410514	0.629843
84	H	0.621961	0.38431	0.698789
85	H	0.571717	0.428263	0.261831
86	H	0.534854	0.515053	0.709009
87	H	0.511539	0.538456	0.814371
88	H	0.417781	0.582355	0.954332
89	C	0.386839	0.773719	0
90	C	0.376358	0.754703	0.139814
91	C	0.382055	0.766577	0.325239
92	C	0.39665	0.79418	0.320077
93	C	0.405917	0.812638	0.479483
94	C	0.420058	0.840215	0.47407
95	C	0.426012	0.852225	0.659116
96	C	0.441814	0.883112	0.698984
97	C	0.447463	0.894541	0.877859
98	C	0.462031	0.922919	0.868776
99	C	0.467268	0.932401	0.683389
100	C	0.481331	0.960126	0.616944
101	C	0.50053	0.968628	0.47133
102	C	0.513896	0.995207	0.410998
103	C	0.508397	0.013955	0.494707
104	C	0.522342	0.041948	0.434479
105	C	0.533486	0.064575	0.546881
106	C	0.545091	0.088499	0.436982
107	C	0.542326	0.083489	0.243516
108	C	0.553007	0.105791	0.085027
109	C	0.549969	0.100332	0.892437
110	S	0.563608	0.128596	0.757149
111	C	0.573985	0.148953	0.954805
112	C	0.588118	0.177726	0.937397
113	C	0.594344	0.192922	0.772184
114	C	0.608533	0.220903	0.808324
115	C	0.612605	0.226006	0
116	S	0.599843	0.198165	0.135059
117	C	0.566837	0.133796	0.120288
118	S	0.525876	0.050155	0.196623
119	C	0.489354	0.005501	0.641334
120	C	0.475993	0.978931	0.701686
121	S	0.454058	0.906599	0.522865
122	C	0.416173	0.833354	0.801435
123	S	0.400043	0.801712	0.712435
124	S	0.403143	0.805103	0.08656
125	H	0.365231	0.733482	0.113123
126	H	0.375571	0.75508	0.456056
127	H	0.425973	0.851485	0.342185
128	H	0.441622	0.883468	0.010428
129	H	0.468524	0.93574	0.993235
130	H	0.505561	0.954747	0.403935
131	H	0.528847	0.001062	0.298769
132	H	0.533526	0.064079	0.701606
133	H	0.554866	0.108205	0.499404
134	H	0.540402	0.081149	0.822471
135	H	0.589032	0.184544	0.629843
136	H	0.615197	0.236087	0.698789
137	H	0.571343	0.142462	0.261831
138	H	0.484467	0.019474	0.709009
139	H	0.461101	0.973034	0.814371
140	H	0.417499	0.83627	0.954332
141	C	0.227177	0.612797	0
142	C	0.246295	0.621323	0.139814
143	C	0.234361	0.615158	0.325239
144	C	0.206611	0.602167	0.320077
145	C	0.188057	0.59299	0.479483
146	C	0.160336	0.579575	0.47407
147	C	0.148264	0.573529	0.659116
148	C	0.117216	0.558468	0.698984
149	C	0.105728	0.552698	0.877859
150	C	0.077201	0.538908	0.868776
151	C	0.067668	0.534667	0.683389
152	C	0.039798	0.521026	0.616944
153	C	0.031185	0.53162	0.47133
154	C	0.004468	0.518429	0.410998
155	C	0.98569	0.494308	0.494707
156	C	0.957552	0.480282	0.434479
157	C	0.934809	0.46882	0.546881
158	C	0.910763	0.456523	0.436982
159	C	0.915799	0.458766	0.243516
160	C	0.893384	0.447167	0.085027
161	C	0.898873	0.449586	0.892437
162	S	0.870464	0.434987	0.757149
163	C	0.850002	0.425024	0.954805
164	C	0.82108	0.410408	0.937397
165	C	0.805812	0.401461	0.772184
166	C	0.777685	0.387691	0.808324
167	C	0.772549	0.386653	0
168	S	0.800529	0.401701	0.135059
169	C	0.865235	0.433017	0.120288
170	S	0.949305	0.475621	0.196623
171	C	0.994255	0.483821	0.641334
172	C	0.020963	0.497008	0.701686
173	S	0.093605	0.54724	0.522865
174	C	0.167235	0.582549	0.801435
175	S	0.199042	0.598037	0.712435
176	S	0.195627	0.597738	0.08656
177	H	0.267628	0.631403	0.113123
178	H	0.245921	0.620167	0.456056
179	H	0.149006	0.574227	0.342185
180	H	0.116859	0.557922	0.010428
181	H	0.064314	0.532591	0.993235
182	H	0.045083	0.550432	0.403935
183	H	0.998528	0.52744	0.298769
184	H	0.935306	0.469354	0.701606
185	H	0.890955	0.446608	0.499404
186	H	0.918155	0.459186	0.822471
187	H	0.814238	0.404529	0.629843
188	H	0.762427	0.379191	0.698789
189	H	0.856524	0.428863	0.261831
190	H	0.980263	0.46506	0.709009
191	H	0.026944	0.488097	0.814371
192	H	0.164305	0.580962	0.954332
