data_C84H42N6O6S12_2023-05-12_05:49:42
#******************************************
#
# CIF file created by Zeo++
# Zeo++ is an open source package to
# analyze microporous materials
#
#*******************************************

_cell_length_a		46.5833   
_cell_length_b		46.8818   
_cell_length_c		7   
_cell_angle_alpha		90   
_cell_angle_beta		90   
_cell_angle_gamma		119.722   

_symmetry_space_group_name_H-M		'P1'
_symmetry_Int_Tables_number		1
_symmetry_cell_setting		Monoclinic

loop_
_symmetry_equiv_pos_as_xyz
'+x,+y,+z'

loop_
_atom_site_label
_atom_site_type_symbol
_atom_site_fract_x
_atom_site_fract_y
_atom_site_fract_z
1	C	0.366602	0.673617	0.999995
2	O	0.39577	0.678728	0.999991
3	C	0.340252	0.639464	0.999998
4	C	0.345388	0.61429	0
5	N	0.378038	0.620177	0
6	C	0.306521	0.633402	3e-06
7	O	0.282839	0.603965	5e-06
8	C	0.298401	0.659667	6e-06
9	C	0.26736	0.653329	5e-06
10	N	0.241721	0.619837	0
11	C	0.32602	0.693548	4e-06
12	O	0.319566	0.716261	7e-06
13	C	0.360294	0.701132	0.999999
14	C	0.38464	0.73204	0.999998
15	N	0.379728	0.759477	0
16	H	0.325215	0.589783	1e-06
17	H	0.260801	0.672142	8e-06
18	H	0.40928	0.736454	0.999997
19	C	0.633398	0.326383	0.999995
20	O	0.60423	0.321272	0.999991
21	C	0.659748	0.360536	0.999998
22	C	0.654612	0.38571	0
23	N	0.621962	0.379823	0
24	C	0.693479	0.366598	3e-06
25	O	0.717161	0.396035	5e-06
26	C	0.701599	0.340333	6e-06
27	C	0.73264	0.346671	5e-06
28	N	0.758279	0.380163	0
29	C	0.67398	0.306452	4e-06
30	O	0.680434	0.283739	7e-06
31	C	0.639706	0.298868	0.999999
32	C	0.61536	0.26796	0.999998
33	N	0.620272	0.240523	0
34	H	0.674785	0.410217	1e-06
35	H	0.739199	0.327858	8e-06
36	H	0.59072	0.263546	0.999997
37	C	0.397979	0.600528	0
38	C	0.414244	0.583876	0.047973
39	C	0.416836	0.581994	0.250595
40	C	0.43399	0.564641	0.355694
41	C	0.436466	0.562937	0.55098
42	C	0.453341	0.545702	0.603867
43	C	0.463091	0.53452	0.44773
44	C	0.481231	0.516329	0.444491
45	C	0.471531	0.48893	0.326322
46	C	0.488987	0.471729	0.326322
47	C	0.516583	0.481493	0.444491
48	C	0.535043	0.46362	0.447731
49	C	0.546382	0.454021	0.603867
50	C	0.563869	0.437397	0.55098
51	C	0.565603	0.434953	0.355694
52	C	0.583211	0.418054	0.250595
53	C	0.598837	0.403767	0.345832
54	S	0.615569	0.387491	0.191718
55	C	0.602021	0.399472	0
56	C	0.585126	0.415496	0.047974
57	S	0.546229	0.452632	0.238733
58	C	0.526123	0.508737	0.563775
59	C	0.508671	0.525933	0.563774
60	S	0.451939	0.545543	0.238732
61	C	0.402331	0.597396	0.345832
62	S	0.385812	0.613885	0.191718
63	H	0.423784	0.573604	0.943894
64	H	0.426845	0.573374	0.653343
65	H	0.457856	0.541529	0.750304
66	H	0.450055	0.480376	0.233762
67	H	0.480475	0.450402	0.233762
68	H	0.542145	0.458472	0.750305
69	H	0.574456	0.427922	0.653344
70	H	0.601492	0.401849	0.497888
71	H	0.574706	0.424891	0.943895
72	H	0.547537	0.517147	0.656682
73	H	0.51704	0.547199	0.65668
74	H	0.400381	0.600017	0.497888
75	C	0.399336	0.798775	0
76	C	0.415957	0.83145	0.047973
77	C	0.417832	0.835891	0.250595
78	C	0.435151	0.870144	0.355694
79	C	0.436847	0.874292	0.55098
80	C	0.45405	0.908151	0.603867
81	C	0.465218	0.928931	0.44773
82	C	0.483373	0.964995	0.444491
83	C	0.510925	0.98263	0.326322
84	C	0.52809	0.017031	0.326322
85	C	0.518137	0.034666	0.444491
86	C	0.535971	0.07073	0.447731
87	C	0.545541	0.09151	0.603867
88	C	0.562127	0.125369	0.55098
89	C	0.564571	0.129517	0.355694
90	C	0.581433	0.16377	0.250595
91	C	0.595684	0.19346	0.345832
92	S	0.611925	0.226224	0.191718
93	C	0.599976	0.200886	0
94	C	0.583989	0.168211	0.047974
95	S	0.546937	0.092741	0.238733
96	C	0.490742	0.017027	0.563775
97	C	0.473581	0.982635	0.563774
98	S	0.454217	0.90692	0.238732
99	C	0.402454	0.806201	0.345832
100	S	0.385999	0.773437	0.191718
101	H	0.426212	0.851117	0.943894
102	H	0.426426	0.85438	0.653343
103	H	0.458213	0.916775	0.750304
104	H	0.51963	0.969856	0.233762
105	H	0.549542	0.029804	0.233762
106	H	0.541098	0.082886	0.750305
107	H	0.571578	0.145281	0.653344
108	H	0.597593	0.197998	0.497888
109	H	0.574618	0.148544	0.943895
110	H	0.482181	0.029882	0.656682
111	H	0.452191	0.969779	0.65668
112	H	0.399835	0.801663	0.497888
113	C	0.202172	0.600188	0
114	C	0.169286	0.584164	0.047973
115	C	0.164819	0.581606	0.250595
116	C	0.130346	0.564706	0.355694
117	C	0.126173	0.562262	0.55098
118	C	0.092096	0.545638	0.603867
119	C	0.071178	0.53604	0.44773
120	C	0.034883	0.518167	0.444491
121	C	0.01703	0.527931	0.326322
122	C	0.982409	0.51073	0.326322
123	C	0.964766	0.483332	0.444491
124	C	0.928473	0.465141	0.447731
125	C	0.907563	0.453959	0.603867
126	C	0.87349	0.436724	0.55098
127	C	0.869313	0.43502	0.355694
128	C	0.834843	0.417667	0.250595
129	C	0.804966	0.402264	0.345832
130	S	0.771993	0.385776	0.191718
131	C	0.79749	0.399133	0
132	C	0.830372	0.415784	0.047974
133	S	0.906321	0.454118	0.238733
134	C	0.982622	0.473728	0.563775
135	C	0.017234	0.490923	0.563774
136	S	0.09333	0.547028	0.238732
137	C	0.194701	0.595893	0.345832
138	S	0.227676	0.612169	0.191718
139	H	0.149491	0.574769	0.943894
140	H	0.146215	0.571737	0.653343
141	H	0.083417	0.541187	0.750304
142	H	0.029801	0.549259	0.233762
143	H	0.96947	0.519285	0.233762
144	H	0.916244	0.458133	0.750305
145	H	0.853453	0.426287	0.653344
146	H	0.800401	0.399644	0.497888
147	H	0.850162	0.426056	0.943895
148	H	0.969768	0.452462	0.656682
149	H	0.030256	0.482513	0.65668
150	H	0.199271	0.59781	0.497888
