data_C48H24N18O6_2023-05-30_16:10:38
#******************************************
#
# CIF file created by Zeo++
# Zeo++ is an open source package to
# analyze microporous materials
#
#*******************************************

_cell_length_a		29.4393   
_cell_length_b		29.7381   
_cell_length_c		7   
_cell_angle_alpha		90   
_cell_angle_beta		90   
_cell_angle_gamma		119.561   

_symmetry_space_group_name_H-M		'P1'
_symmetry_Int_Tables_number		1
_symmetry_cell_setting		Monoclinic

loop_
_symmetry_equiv_pos_as_xyz
'+x,+y,+z'

loop_
_atom_site_label
_atom_site_type_symbol
_atom_site_fract_x
_atom_site_fract_y
_atom_site_fract_z
1	C	0.385939	0.677606	0.999995
2	O	0.432067	0.68565	0.999991
3	C	0.344421	0.62385	0.999998
4	C	0.352676	0.584227	0
5	N	0.404309	0.593492	0
6	C	0.291077	0.614308	3e-06
7	O	0.253755	0.567976	5e-06
8	C	0.278094	0.65565	6e-06
9	C	0.229009	0.645674	5e-06
10	N	0.188611	0.592958	0
11	C	0.321622	0.708977	4e-06
12	O	0.311293	0.744728	7e-06
13	C	0.375816	0.720914	0.999999
14	C	0.414182	0.769563	0.999998
15	N	0.406269	0.812748	0
16	H	0.320882	0.545654	1e-06
17	H	0.218533	0.675285	8e-06
18	H	0.453149	0.77651	0.999997
19	C	0.614061	0.322394	0.999995
20	O	0.567933	0.31435	0.999991
21	C	0.655579	0.37615	0.999998
22	C	0.647324	0.415773	0
23	N	0.595691	0.406508	0
24	C	0.708923	0.385692	3e-06
25	O	0.746245	0.432024	5e-06
26	C	0.721906	0.34435	6e-06
27	C	0.770991	0.354326	5e-06
28	N	0.811389	0.407042	0
29	C	0.678378	0.291023	4e-06
30	O	0.688707	0.255272	7e-06
31	C	0.624184	0.279086	0.999999
32	C	0.585818	0.230437	0.999998
33	N	0.593731	0.187252	0
34	H	0.679118	0.454346	1e-06
35	H	0.781467	0.324715	8e-06
36	H	0.546851	0.22349	0.999997
37	C	0.564036	0.437435	0
38	C	0.598635	0.469524	0.138363
39	N	0.583346	0.486863	0.291504
40	C	0.531725	0.471069	0.300457
41	C	0.515251	0.488973	0.467212
42	C	0.487696	0.513957	0.467269
43	C	0.470169	0.530816	0.300469
44	N	0.418504	0.514976	0.295329
45	C	0.402249	0.531354	0.142105
46	C	0.435964	0.562565	0
47	N	0.487699	0.578934	0.005609
48	C	0.503961	0.562594	0.158532
49	C	0.497051	0.438414	0.162298
50	N	0.512349	0.421115	0.009457
51	H	0.640086	0.482476	0.131105
52	H	0.527554	0.480573	0.602742
53	H	0.476247	0.523207	0.602958
54	H	0.360761	0.518365	0.137924
55	H	0.54561	0.576221	0.163887
56	H	0.455446	0.424831	0.170777
57	C	0.561815	0.124863	0
58	C	0.529237	0.127158	0.138363
59	N	0.511933	0.094903	0.291504
60	C	0.528272	0.05968	0.300457
61	C	0.51041	0.025695	0.467212
62	C	0.485526	0.973772	0.467269
63	C	0.468725	0.939787	0.300469
64	N	0.48511	0.904565	0.295329
65	C	0.468781	0.872309	0.142105
66	C	0.437095	0.874603	0
67	N	0.420177	0.90937	0.005609
68	C	0.436467	0.941595	0.158532
69	C	0.56142	0.057871	0.162298
70	N	0.578683	0.090096	0.009457
71	H	0.515846	0.155176	0.131105
72	H	0.51875	0.046148	0.602742
73	H	0.476323	0.953319	0.602958
74	H	0.48221	0.844293	0.137924
75	H	0.422395	0.969138	0.163887
76	H	0.575447	0.030327	0.170777
77	C	0.873338	0.4369	0
78	C	0.871316	0.402517	0.138363
79	N	0.903909	0.417433	0.291504
80	C	0.93919	0.468451	0.300457
81	C	0.973527	0.484531	0.467212
82	C	0.025967	0.51147	0.467269
83	C	0.060294	0.528596	0.300469
84	N	0.095574	0.579658	0.295329
85	C	0.128158	0.595535	0.142105
86	C	0.12613	0.562031	0
87	N	0.091313	0.510895	0.005609
88	C	0.05876	0.495011	0.158532
89	C	0.940717	0.502914	0.162298
90	N	0.908156	0.487988	0.009457
91	H	0.843256	0.361547	0.131105
92	H	0.952884	0.472478	0.602742
93	H	0.046618	0.522673	0.602958
94	H	0.156217	0.636541	0.137924
95	H	0.031183	0.45384	0.163887
96	H	0.968296	0.544041	0.170777
