data_C60H30N6O6S6_2023-05-12_12:07:44
#******************************************
#
# CIF file created by Zeo++
# Zeo++ is an open source package to
# analyze microporous materials
#
#*******************************************

_cell_length_a		36.7657   
_cell_length_b		37.0643   
_cell_length_c		7   
_cell_angle_alpha		90   
_cell_angle_beta		90   
_cell_angle_gamma		119.648   

_symmetry_space_group_name_H-M		'P1'
_symmetry_Int_Tables_number		1
_symmetry_cell_setting		Monoclinic

loop_
_symmetry_equiv_pos_as_xyz
'+x,+y,+z'

loop_
_atom_site_label
_atom_site_type_symbol
_atom_site_fract_x
_atom_site_fract_y
_atom_site_fract_z
1	C	0.375472	0.675451	0.999995
2	O	0.412419	0.681911	0.999991
3	C	0.342151	0.632284	0.999998
4	C	0.348705	0.600465	0
5	N	0.390063	0.607906	0
6	C	0.299424	0.624621	3e-06
7	O	0.269474	0.587415	5e-06
8	C	0.289086	0.65782	6e-06
9	C	0.249769	0.649809	5e-06
10	N	0.217346	0.607477	0
11	C	0.324016	0.700643	4e-06
12	O	0.315796	0.729352	7e-06
13	C	0.367427	0.710229	0.999999
14	C	0.398216	0.749296	0.999998
15	N	0.391941	0.783974	0
16	H	0.323193	0.56949	1e-06
17	H	0.241422	0.673588	8e-06
18	H	0.429429	0.754874	0.999997
19	C	0.624528	0.324549	0.999995
20	O	0.587581	0.318089	0.999991
21	C	0.657849	0.367716	0.999998
22	C	0.651295	0.399535	0
23	N	0.609937	0.392094	0
24	C	0.700576	0.375379	3e-06
25	O	0.730526	0.412585	5e-06
26	C	0.710914	0.34218	6e-06
27	C	0.750231	0.350191	5e-06
28	N	0.782654	0.392523	0
29	C	0.675984	0.299357	4e-06
30	O	0.684204	0.270648	7e-06
31	C	0.632573	0.289771	0.999999
32	C	0.601784	0.250704	0.999998
33	N	0.608059	0.216026	0
34	H	0.676807	0.43051	1e-06
35	H	0.758578	0.326412	8e-06
36	H	0.570571	0.245126	0.999997
37	C	0.415366	0.58307	0
38	C	0.420203	0.578322	0.190444
39	C	0.442569	0.556369	0.218996
40	C	0.454096	0.545055	0.049792
41	C	0.477369	0.522212	0.022206
42	C	0.486901	0.512858	0.841446
43	C	0.509002	0.491166	0.819851
44	C	0.522631	0.477788	0.977794
45	C	0.545904	0.454945	0.950208
46	C	0.557432	0.443632	0.781004
47	C	0.579798	0.421678	0.809556
48	C	0.584634	0.41693	0
49	S	0.563087	0.438077	0.142302
50	C	0.513099	0.487141	0.158555
51	C	0.490998	0.508834	0.18015
52	S	0.436912	0.561922	0.857698
53	H	0.408597	0.589714	0.304188
54	H	0.449682	0.549388	0.359671
55	H	0.477476	0.522111	0.711531
56	H	0.515167	0.485116	0.674927
57	H	0.55032	0.450614	0.640329
58	H	0.591405	0.410287	0.695813
59	H	0.522524	0.477889	0.288469
60	H	0.484833	0.514884	0.325074
61	C	0.416711	0.833645	0
62	C	0.421447	0.843141	0.190444
63	C	0.443342	0.887047	0.218996
64	C	0.454627	0.909675	0.049792
65	C	0.47741	0.955361	0.022206
66	C	0.486739	0.97407	0.841446
67	C	0.508375	0.017455	0.819851
68	C	0.521718	0.044211	0.977794
69	C	0.544501	0.089896	0.950208
70	C	0.555784	0.112524	0.781004
71	C	0.57768	0.156431	0.809556
72	C	0.582416	0.165926	0
73	S	0.561325	0.12363	0.142302
74	C	0.512389	0.025501	0.158555
75	C	0.490753	0.982116	0.18015
76	S	0.437804	0.875941	0.857698
77	H	0.410085	0.820357	0.304188
78	H	0.450305	0.90101	0.359671
79	H	0.477511	0.955567	0.711531
80	H	0.514409	0.029556	0.674927
81	H	0.54882	0.098561	0.640329
82	H	0.589041	0.179214	0.695813
83	H	0.521617	0.044005	0.288469
84	H	0.484719	0.970015	0.325074
85	C	0.167273	0.582641	0
86	C	0.157701	0.577893	0.190444
87	C	0.113438	0.55594	0.218996
88	C	0.090627	0.544626	0.049792
89	C	0.044571	0.521783	0.022206
90	C	0.02571	0.512428	0.841446
91	C	0.981973	0.490735	0.819851
92	C	0.955001	0.477358	0.977794
93	C	0.908945	0.454515	0.950208
94	C	0.886134	0.4432	0.781004
95	C	0.841872	0.421247	0.809556
96	C	0.832299	0.416501	0
97	S	0.874938	0.43765	0.142302
98	C	0.973862	0.486714	0.158555
99	C	0.017599	0.508406	0.18015
100	S	0.124634	0.561493	0.857698
101	H	0.180668	0.589285	0.304188
102	H	0.099362	0.548959	0.359671
103	H	0.044363	0.521679	0.711531
104	H	0.969775	0.484684	0.674927
105	H	0.90021	0.450181	0.640329
106	H	0.818904	0.409855	0.695813
107	H	0.955209	0.477463	0.288469
108	H	0.029798	0.514458	0.325074
