data_C114H54N6O6S12_2023-05-14_14:09:41
#******************************************
#
# CIF file created by Zeo++
# Zeo++ is an open source package to
# analyze microporous materials
#
#*******************************************

_cell_length_a		53.9324   
_cell_length_b		54.2309   
_cell_length_c		7   
_cell_angle_alpha		90   
_cell_angle_beta		90   
_cell_angle_gamma		119.76   

_symmetry_space_group_name_H-M		'P1'
_symmetry_Int_Tables_number		1
_symmetry_cell_setting		Monoclinic

loop_
_symmetry_equiv_pos_as_xyz
'+x,+y,+z'

loop_
_atom_site_label
_atom_site_type_symbol
_atom_site_fract_x
_atom_site_fract_y
_atom_site_fract_z
1	C	0.362073	0.672677	0.999995
2	O	0.38727	0.677097	0.999991
3	C	0.339292	0.643141	0.999998
4	C	0.343711	0.621371	0
5	N	0.371915	0.626462	0
6	C	0.310153	0.637899	3e-06
7	O	0.289679	0.612442	5e-06
8	C	0.303157	0.660614	6e-06
9	C	0.276342	0.655132	5e-06
10	N	0.254174	0.626168	0
11	C	0.327034	0.689914	4e-06
12	O	0.321475	0.709557	7e-06
13	C	0.356643	0.696473	0.999999
14	C	0.377692	0.723202	0.999998
15	N	0.373467	0.74693	0
16	H	0.326271	0.600177	1e-06
17	H	0.270688	0.671402	8e-06
18	H	0.398977	0.727019	0.999997
19	C	0.637927	0.327323	0.999995
20	O	0.61273	0.322903	0.999991
21	C	0.660708	0.356859	0.999998
22	C	0.656289	0.378629	0
23	N	0.628085	0.373538	0
24	C	0.689847	0.362101	3e-06
25	O	0.710321	0.387558	5e-06
26	C	0.696843	0.339386	6e-06
27	C	0.723658	0.344868	5e-06
28	N	0.745826	0.373832	0
29	C	0.672966	0.310086	4e-06
30	O	0.678525	0.290443	7e-06
31	C	0.643357	0.303527	0.999999
32	C	0.622308	0.276798	0.999998
33	N	0.626533	0.25307	0
34	H	0.673729	0.399823	1e-06
35	H	0.729312	0.328598	8e-06
36	H	0.601023	0.272981	0.999997
37	C	0.389126	0.609469	0
38	C	0.417895	0.625374	0.966776
39	C	0.431398	0.60855	0.985813
40	C	0.412416	0.580471	0.032473
41	C	0.418578	0.557648	0.063638
42	C	0.399657	0.528678	0.063385
43	C	0.413236	0.512275	0.098885
44	C	0.442213	0.529097	0.126547
45	C	0.463448	0.520503	0.169086
46	C	0.468641	0.517609	0.361733
47	C	0.488624	0.509654	0.412419
48	C	0.503831	0.504397	0.271784
49	C	0.523966	0.496564	0.32346
50	C	0.539284	0.491332	0.184281
51	C	0.535049	0.493639	0.987678
52	C	0.550272	0.488474	0.841942
53	C	0.572518	0.481272	0.885473
54	C	0.600557	0.49916	0.936639
55	C	0.615623	0.484114	0.968438
56	C	0.598838	0.4551	0.94066
57	C	0.607827	0.434078	0.960116
58	C	0.635713	0.439189	0.96255
59	C	0.637518	0.413954	0.985592
60	C	0.610874	0.390531	0
61	S	0.584204	0.398297	0.986643
62	S	0.564787	0.446699	0.875341
63	C	0.544663	0.490813	0.649331
64	C	0.524276	0.498226	0.598561
65	C	0.509203	0.503682	0.739076
66	C	0.488942	0.51135	0.687467
67	C	0.473897	0.516951	0.826661
68	C	0.478361	0.514954	0.023185
69	C	0.498824	0.50696	0.076191
70	C	0.514418	0.501412	0.934635
71	S	0.45272	0.564368	0.109436
72	S	0.378202	0.575115	0.051333
73	H	0.428926	0.647759	0.931226
74	H	0.454116	0.616915	0.965485
75	H	0.376916	0.519345	0.038413
76	H	0.402186	0.48927	0.105444
77	H	0.457108	0.521663	0.473581
78	H	0.492236	0.507666	0.563177
79	H	0.528009	0.494394	0.473125
80	H	0.554626	0.485166	0.232381
81	H	0.609807	0.521949	0.951294
82	H	0.637843	0.494372	0.010985
83	H	0.654248	0.460127	0.947509
84	H	0.657283	0.413349	0.99078
85	H	0.556281	0.486883	0.537427
86	H	0.520333	0.499748	0.447865
87	H	0.484597	0.513113	0.537883
88	H	0.458408	0.522921	0.778644
89	C	0.390429	0.780916	0
90	C	0.374336	0.793629	0.966776
91	C	0.391147	0.823768	0.985813
92	C	0.419405	0.832879	0.032473
93	C	0.442269	0.861705	0.063638
94	C	0.471421	0.871764	0.063385
95	C	0.487809	0.901559	0.098885
96	C	0.470795	0.913566	0.126547
97	C	0.479313	0.943186	0.169086
98	C	0.482191	0.951218	0.361733
99	C	0.490074	0.97896	0.412419
100	C	0.495274	0.999278	0.271784
101	C	0.503034	0.02705	0.32346
102	C	0.508208	0.047453	0.184281
103	C	0.505914	0.040956	0.987678
104	C	0.511021	0.061198	0.841942
105	C	0.518138	0.090436	0.885473
106	C	0.500059	0.100452	0.936639
107	C	0.515079	0.130372	0.968438
108	C	0.544265	0.142594	0.94066
109	C	0.565309	0.172432	0.960116
110	C	0.560048	0.195012	0.96255
111	C	0.585352	0.221915	0.985592
112	C	0.608977	0.218791	0
113	S	0.601316	0.184604	0.986643
114	S	0.552857	0.117172	0.875341
115	C	0.508703	0.053306	0.649331
116	C	0.501366	0.025704	0.598561
117	C	0.495965	0.005319	0.739076
118	C	0.488371	0.977588	0.687467
119	C	0.482825	0.957087	0.826661
120	C	0.484807	0.963504	0.023185
121	C	0.492728	0.991761	0.076191
122	C	0.498217	0.012753	0.934635
123	S	0.435363	0.88889	0.109436
124	S	0.424943	0.804266	0.051333
125	H	0.351827	0.782295	0.931226
126	H	0.382646	0.837982	0.965485
127	H	0.480893	0.858491	0.038413
128	H	0.510939	0.91349	0.105444
129	H	0.47818	0.935741	0.473581
130	H	0.492051	0.984521	0.563177
131	H	0.505191	0.03322	0.473125
132	H	0.514319	0.06881	0.232381
133	H	0.477155	0.08695	0.951294
134	H	0.504683	0.142209	0.010985
135	H	0.538954	0.192563	0.947509
136	H	0.585864	0.242127	0.99078
137	H	0.512589	0.068744	0.537427
138	H	0.499858	0.020277	0.447865
139	H	0.486624	0.971522	0.537883
140	H	0.476912	0.93578	0.778644
141	C	0.220001	0.609175	0
142	C	0.207326	0.580557	0.966776
143	C	0.177012	0.567242	0.985813
144	C	0.167735	0.586209	0.032473
145	C	0.13871	0.580207	0.063638
146	C	0.128479	0.599118	0.063385
147	C	0.098511	0.585725	0.098885
148	C	0.086549	0.556897	0.126547
149	C	0.056796	0.535871	0.169086
150	C	0.048725	0.530732	0.361733
151	C	0.020858	0.510946	0.412419
152	C	0.000452	0.495885	0.271784
153	C	0.972556	0.475946	0.32346
154	C	0.952065	0.460775	0.184281
155	C	0.958593	0.464965	0.987678
156	C	0.938263	0.449887	0.841942
157	C	0.9089	0.427851	0.885473
158	C	0.89894	0.399947	0.936639
159	C	0.868855	0.385074	0.968438
160	C	0.856453	0.401866	0.94066
161	C	0.826421	0.393049	0.960116
162	C	0.803796	0.365359	0.96255
163	C	0.776686	0.36369	0.985592
164	C	0.779706	0.390237	0
165	S	0.814037	0.416659	0.986643
166	S	0.881912	0.435688	0.875341
167	C	0.946191	0.45544	0.649331
168	C	0.973915	0.47563	0.598561
169	C	0.994389	0.490558	0.739076
170	C	0.022243	0.510622	0.687467
171	C	0.042834	0.525521	0.826661
172	C	0.036388	0.521102	0.023185
173	C	0.008005	0.500839	0.076191
174	C	0.986921	0.485395	0.934635
175	S	0.111473	0.546302	0.109436
176	S	0.196411	0.620179	0.051333
177	H	0.218803	0.569505	0.931226
178	H	0.162795	0.544663	0.965485
179	H	0.141747	0.621725	0.038413
180	H	0.086432	0.5968	0.105444
181	H	0.064269	0.542155	0.473581
182	H	0.01527	0.507372	0.563177
183	H	0.966356	0.471946	0.473125
184	H	0.930611	0.445584	0.232381
185	H	0.912595	0.39066	0.951294
186	H	0.857031	0.362979	0.010985
187	H	0.806355	0.34687	0.947509
188	H	0.75641	0.344084	0.99078
189	H	0.930686	0.443933	0.537427
190	H	0.979366	0.479535	0.447865
191	H	0.028336	0.514925	0.537883
192	H	0.064237	0.540859	0.778644
