data_C54H18N6O6S6_2023-05-11_18:52:35
#******************************************
#
# CIF file created by Zeo++
# Zeo++ is an open source package to
# analyze microporous materials
#
#*******************************************

_cell_length_a		38.3279   
_cell_length_b		38.6265   
_cell_length_c		7   
_cell_angle_alpha		90   
_cell_angle_beta		90   
_cell_angle_gamma		119.662   

_symmetry_space_group_name_H-M		'P1'
_symmetry_Int_Tables_number		1
_symmetry_cell_setting		Monoclinic

loop_
_symmetry_equiv_pos_as_xyz
'+x,+y,+z'

loop_
_atom_site_label
_atom_site_type_symbol
_atom_site_fract_x
_atom_site_fract_y
_atom_site_fract_z
1	C	0.373757	0.675097	0.999995
2	O	0.4092	0.681297	0.999991
3	C	0.341782	0.633669	0.999998
4	C	0.34806	0.603133	0
5	N	0.387734	0.610274	0
6	C	0.300794	0.626316	3e-06
7	O	0.272055	0.59061	5e-06
8	C	0.290887	0.658177	6e-06
9	C	0.25317	0.650488	5e-06
10	N	0.222057	0.609862	0
11	C	0.324405	0.699273	4e-06
12	O	0.316528	0.726825	7e-06
13	C	0.36605	0.708473	0.999999
14	C	0.395595	0.745965	0.999998
15	N	0.389585	0.779246	0
16	H	0.323579	0.573407	1e-06
17	H	0.24517	0.673309	8e-06
18	H	0.425536	0.751319	0.999997
19	C	0.626243	0.324903	0.999995
20	O	0.5908	0.318703	0.999991
21	C	0.658218	0.366331	0.999998
22	C	0.65194	0.396867	0
23	N	0.612266	0.389726	0
24	C	0.699206	0.373684	3e-06
25	O	0.727945	0.40939	5e-06
26	C	0.709113	0.341823	6e-06
27	C	0.74683	0.349512	5e-06
28	N	0.777943	0.390138	0
29	C	0.675595	0.300727	4e-06
30	O	0.683472	0.273175	7e-06
31	C	0.63395	0.291527	0.999999
32	C	0.604405	0.254035	0.999998
33	N	0.610415	0.220754	0
34	H	0.676421	0.426593	1e-06
35	H	0.75483	0.326691	8e-06
36	H	0.574464	0.248681	0.999997
37	C	0.588001	0.41356	0
38	C	0.583109	0.418397	0.809545
39	C	0.561628	0.439506	0.783158
40	C	0.551277	0.449646	0.954637
41	C	0.529755	0.470786	0.973713
42	C	0.511628	0.488591	0.989728
43	C	0.488383	0.511421	0.010276
44	C	0.470256	0.529224	0.02629
45	C	0.448732	0.550363	0.045365
46	C	0.438393	0.560515	0.216844
47	C	0.416905	0.581617	0.190456
48	C	0.411999	0.58644	0
49	S	0.432526	0.566282	0.854429
50	S	0.567466	0.43371	0.145572
51	H	0.59412	0.4076	0.694665
52	H	0.554227	0.446801	0.644973
53	H	0.445806	0.553232	0.355029
54	H	0.405901	0.592422	0.305335
55	C	0.585804	0.172674	0
56	C	0.580979	0.163032	0.809545
57	C	0.559923	0.120823	0.783158
58	C	0.549809	0.100516	0.954637
59	C	0.528722	0.058235	0.973713
60	C	0.510962	0.022626	0.989728
61	C	0.48819	0.976963	0.010276
62	C	0.470431	0.941354	0.02629
63	C	0.449345	0.899073	0.045365
64	C	0.439219	0.878766	0.216844
65	C	0.418169	0.836556	0.190456
66	C	0.413359	0.826915	0
67	S	0.433467	0.867236	0.854429
68	S	0.565705	0.132353	0.145572
69	H	0.591749	0.184645	0.694665
70	H	0.552647	0.106259	0.644973
71	H	0.446483	0.893329	0.355029
72	H	0.407392	0.814943	0.305335
73	C	0.825572	0.413148	0
74	C	0.835288	0.417953	0.809545
75	C	0.877826	0.439053	0.783158
76	C	0.89829	0.449221	0.954637
77	C	0.9409	0.470361	0.973713
78	C	0.976786	0.488166	0.989728
79	C	0.022803	0.510999	0.010276
80	C	0.05869	0.528804	0.02629
81	C	0.101299	0.549946	0.045365
82	C	0.121764	0.560102	0.216844
83	C	0.164302	0.581209	0.190456
84	C	0.174018	0.586028	0
85	S	0.133383	0.565865	0.854429
86	S	0.866206	0.433319	0.145572
87	H	0.813507	0.407138	0.694665
88	H	0.892503	0.446323	0.644973
89	H	0.107087	0.552821	0.355029
90	H	0.186083	0.592018	0.305335
