data_C96H54N6O6_2023-05-30_02:41:21
#******************************************
#
# CIF file created by Zeo++
# Zeo++ is an open source package to
# analyze microporous materials
#
#*******************************************

_cell_length_a		40.3722   
_cell_length_b		40.6708   
_cell_length_c		7   
_cell_angle_alpha		90   
_cell_angle_beta		90   
_cell_angle_gamma		119.679   

_symmetry_space_group_name_H-M		'P1'
_symmetry_Int_Tables_number		1
_symmetry_cell_setting		Monoclinic

loop_
_symmetry_equiv_pos_as_xyz
'+x,+y,+z'

loop_
_atom_site_label
_atom_site_type_symbol
_atom_site_fract_x
_atom_site_fract_y
_atom_site_fract_z
1	C	0.371713	0.674675	0.999995
2	O	0.405363	0.680564	0.999991
3	C	0.341344	0.635323	0.999998
4	C	0.347294	0.606317	0
5	N	0.384961	0.6131	0
6	C	0.302429	0.628338	3e-06
7	O	0.275133	0.59442	5e-06
8	C	0.293034	0.658602	6e-06
9	C	0.257224	0.651299	5e-06
10	N	0.227674	0.612708	0
11	C	0.324868	0.69764	4e-06
12	O	0.317399	0.723811	7e-06
13	C	0.364407	0.706378	0.999999
14	C	0.392468	0.741992	0.999998
15	N	0.386773	0.773605	0
16	H	0.324043	0.578079	1e-06
17	H	0.249637	0.672976	8e-06
18	H	0.420895	0.747077	0.999997
19	C	0.628287	0.325325	0.999995
20	O	0.594637	0.319436	0.999991
21	C	0.658656	0.364677	0.999998
22	C	0.652706	0.393683	0
23	N	0.615039	0.3869	0
24	C	0.697571	0.371662	3e-06
25	O	0.724867	0.40558	5e-06
26	C	0.706966	0.341398	6e-06
27	C	0.742776	0.348701	5e-06
28	N	0.772326	0.387292	0
29	C	0.675132	0.30236	4e-06
30	O	0.682601	0.276189	7e-06
31	C	0.635593	0.293622	0.999999
32	C	0.607532	0.258008	0.999998
33	N	0.613227	0.226395	0
34	H	0.675957	0.421921	1e-06
35	H	0.750363	0.327024	8e-06
36	H	0.579105	0.252923	0.999997
37	C	0.40799	0.590459	0
38	C	0.434302	0.580968	0.95324
39	C	0.416096	0.540254	0.932649
40	C	0.434399	0.518026	0.882165
41	C	0.432238	0.507038	0.690859
42	C	0.449205	0.486176	0.631547
43	C	0.468727	0.475909	0.762057
44	C	0.485731	0.45499	0.702058
45	C	0.505268	0.444663	0.831404
46	C	0.508636	0.454855	0.025857
47	C	0.528308	0.444834	0.161352
48	C	0.547362	0.423354	0.109991
49	C	0.53204	0.385868	0.137814
50	C	0.559176	0.373093	0.069623
51	C	0.59201	0.409541	0
52	C	0.584719	0.437974	0.024565
53	C	0.530466	0.455819	0.35266
54	C	0.513386	0.476568	0.412104
55	C	0.493846	0.486819	0.281615
56	C	0.476755	0.50765	0.341716
57	C	0.457234	0.517994	0.212351
58	C	0.454038	0.507973	0.017698
59	C	0.471322	0.486714	0.956086
60	C	0.491309	0.476071	0.087519
61	C	0.378522	0.525062	0.966547
62	C	0.369431	0.555807	0.013683
63	H	0.464422	0.599995	0.933382
64	H	0.417325	0.514811	0.586553
65	H	0.44706	0.478066	0.482035
66	H	0.483998	0.44641	0.553515
67	H	0.517921	0.428288	0.777446
68	H	0.504382	0.367286	0.199233
69	H	0.567478	0.360996	0.187426
70	H	0.546375	0.352339	0.954431
71	H	0.603166	0.467316	0.98775
72	H	0.545631	0.448297	0.456672
73	H	0.515558	0.484705	0.561586
74	H	0.478387	0.516129	0.490376
75	H	0.444351	0.534138	0.266578
76	H	0.357629	0.495292	0.96178
77	H	0.349464	0.556288	0.90949
78	H	0.357516	0.551947	0.157714
79	C	0.409359	0.818886	0
80	C	0.418721	0.854351	0.95324
81	C	0.459722	0.876789	0.932649
82	C	0.481924	0.916984	0.882165
83	C	0.492972	0.925763	0.690859
84	C	0.513811	0.963279	0.631547
85	C	0.523996	0.992797	0.762057
86	C	0.544892	0.030406	0.702058
87	C	0.555137	0.059998	0.831404
88	C	0.544881	0.053204	0.025857
89	C	0.554817	0.082626	0.161352
90	C	0.576264	0.122821	0.109991
91	C	0.614004	0.144905	0.137814
92	C	0.626657	0.184448	0.069623
93	C	0.589847	0.180724	0
94	C	0.561341	0.145258	0.024565
95	C	0.543771	0.073846	0.35266
96	C	0.523046	0.036331	0.412104
97	C	0.512879	0.006812	0.281615
98	C	0.49207	0.969203	0.341716
99	C	0.48181	0.939611	0.212351
100	C	0.491893	0.946405	0.017698
101	C	0.513129	0.984629	0.956086
102	C	0.523688	0.01498	0.087519
103	C	0.475219	0.854705	0.966547
104	C	0.444405	0.815162	0.013683
105	H	0.39942	0.86525	0.933382
106	H	0.485263	0.903284	0.586553
107	H	0.521969	0.969214	0.482035
108	H	0.553519	0.037215	0.553515
109	H	0.571498	0.088787	0.777446
110	H	0.632842	0.136	0.199233
111	H	0.638752	0.204682	0.187426
112	H	0.64758	0.192401	0.954431
113	H	0.531759	0.134359	0.98775
114	H	0.551227	0.096326	0.456672
115	H	0.514862	0.030396	0.561586
116	H	0.483546	0.962394	0.490376
117	H	0.465681	0.910823	0.266578
118	H	0.505248	0.863609	0.96178
119	H	0.44405	0.794928	0.90949
120	H	0.448358	0.807208	0.157714
121	C	0.182059	0.590068	0
122	C	0.146386	0.564094	0.95324
123	C	0.12359	0.582371	0.932649
124	C	0.083085	0.564403	0.882165
125	C	0.074198	0.566612	0.690859
126	C	0.036392	0.549959	0.631547
127	C	0.006685	0.530708	0.762057
128	C	0.968784	0.514018	0.702058
129	C	0.939003	0.494752	0.831404
130	C	0.945892	0.491355	0.025857
131	C	0.916283	0.471954	0.161352
132	C	0.875782	0.453239	0.109991
133	C	0.853363	0.468641	0.137814
134	C	0.813574	0.441873	0.069623
135	C	0.817551	0.409149	0
136	C	0.853348	0.416181	0.024565
137	C	0.92517	0.469748	0.35266
138	C	0.962976	0.486514	0.412104
139	C	0.992683	0.505783	0.281615
140	C	0.030582	0.52256	0.341716
141	C	0.060364	0.541809	0.212351
142	C	0.053476	0.545035	0.017698
143	C	0.014956	0.52807	0.956086
144	C	0.984411	0.508363	0.087519
145	C	0.145666	0.619647	0.966547
146	C	0.185573	0.628445	0.013683
147	H	0.135565	0.534168	0.933382
148	H	0.096821	0.581319	0.586553
149	H	0.030379	0.552133	0.482035
150	H	0.961891	0.515788	0.553515
151	H	0.909989	0.482338	0.777446
152	H	0.862184	0.496128	0.199233
153	H	0.793178	0.433736	0.187426
154	H	0.805453	0.454672	0.954431
155	H	0.864483	0.397739	0.98775
156	H	0.902549	0.454791	0.456672
157	H	0.968988	0.484313	0.561586
158	H	0.037475	0.52089	0.490376
159	H	0.089376	0.554452	0.266578
160	H	0.136531	0.640512	0.96178
161	H	0.205894	0.648198	0.90949
162	H	0.193534	0.640259	0.157714
