data_C114H54N6O6S24_2023-05-14_14:54:36
#******************************************
#
# CIF file created by Zeo++
# Zeo++ is an open source package to
# analyze microporous materials
#
#*******************************************

_cell_length_a		65.7007   
_cell_length_b		65.9991   
_cell_length_c		7   
_cell_angle_alpha		90   
_cell_angle_beta		90   
_cell_angle_gamma		119.802   

_symmetry_space_group_name_H-M		'P1'
_symmetry_Int_Tables_number		1
_symmetry_cell_setting		Monoclinic

loop_
_symmetry_equiv_pos_as_xyz
'+x,+y,+z'

loop_
_atom_site_label
_atom_site_type_symbol
_atom_site_fract_x
_atom_site_fract_y
_atom_site_fract_z
1	C	0.35693	0.671608	0.999995
2	O	0.377616	0.675241	0.999991
3	C	0.338208	0.647328	0.999998
4	C	0.34182	0.629431	0
5	N	0.364976	0.633616	0
6	C	0.314284	0.643018	3e-06
7	O	0.29746	0.622091	5e-06
8	C	0.308558	0.661691	6e-06
9	C	0.286542	0.657185	5e-06
10	N	0.268324	0.633375	0
11	C	0.328179	0.685777	4e-06
12	O	0.323629	0.701924	7e-06
13	C	0.352489	0.691168	0.999999
14	C	0.369787	0.713142	0.999998
15	N	0.366335	0.732647	0
16	H	0.327489	0.612009	1e-06
17	H	0.281913	0.670559	8e-06
18	H	0.387262	0.716279	0.999997
19	C	0.64307	0.328392	0.999995
20	O	0.622384	0.324759	0.999991
21	C	0.661792	0.352672	0.999998
22	C	0.65818	0.370569	0
23	N	0.635024	0.366384	0
24	C	0.685716	0.356982	3e-06
25	O	0.70254	0.377909	5e-06
26	C	0.691442	0.338309	6e-06
27	C	0.713458	0.342815	5e-06
28	N	0.731676	0.366625	0
29	C	0.671821	0.314223	4e-06
30	O	0.676371	0.298076	7e-06
31	C	0.647511	0.308832	0.999999
32	C	0.630213	0.286858	0.999998
33	N	0.633665	0.267353	0
34	H	0.672511	0.387991	1e-06
35	H	0.718087	0.329441	8e-06
36	H	0.612738	0.283721	0.999997
37	C	0.379092	0.619648	0
38	C	0.387619	0.612426	0.147618
39	C	0.3982	0.599458	0.078606
40	C	0.39736	0.597269	0.881127
41	C	0.406279	0.585353	0.762957
42	C	0.406458	0.584127	0.565795
43	C	0.416666	0.570805	0.497559
44	C	0.424252	0.562028	0.643171
45	C	0.435164	0.547725	0.621983
46	C	0.434082	0.534759	0.463283
47	C	0.446901	0.522703	0.486988
48	C	0.457658	0.526592	0.663508
49	C	0.472035	0.517086	0.731453
50	C	0.482645	0.507603	0.62085
51	C	0.495464	0.499529	0.731272
52	C	0.494491	0.502875	0.925306
53	C	0.505254	0.496789	0.079072
54	C	0.507433	0.503294	0.269036
55	C	0.518994	0.493958	0.381081
56	C	0.525573	0.480431	0.275708
57	C	0.537364	0.468331	0.347001
58	C	0.5391	0.463189	0.535732
59	C	0.551976	0.451185	0.55904
60	C	0.559935	0.447257	0.387866
61	C	0.57358	0.435677	0.362505
62	C	0.586575	0.432221	0.500705
63	C	0.597867	0.42	0.430481
64	C	0.593343	0.41417	0.239351
65	C	0.601784	0.401822	0.121247
66	C	0.597805	0.396563	0.928079
67	C	0.608883	0.384123	0.857691
68	C	0.620908	0.380352	0
69	S	0.619128	0.391342	0.213404
70	S	0.575307	0.423784	0.149495
71	S	0.551693	0.458522	0.201849
72	S	0.51745	0.479374	0.041387
73	S	0.477899	0.515883	0.968663
74	S	0.451974	0.545041	0.796727
75	S	0.418626	0.570119	0.860871
76	S	0.383534	0.611239	0.783287
77	H	0.386483	0.616077	0.296849
78	H	0.406075	0.592138	0.171738
79	H	0.39964	0.592399	0.47193
80	H	0.418402	0.568047	0.347303
81	H	0.424395	0.533685	0.334889
82	H	0.447921	0.511557	0.378337
83	H	0.481521	0.506504	0.4665
84	H	0.504983	0.491675	0.668696
85	H	0.501121	0.514363	0.327482
86	H	0.522327	0.497279	0.532582
87	H	0.531362	0.467611	0.653694
88	H	0.554988	0.445585	0.696401
89	H	0.588201	0.43826	0.646748
90	H	0.608839	0.415824	0.518629
91	H	0.587389	0.401369	0.838898
92	H	0.607917	0.378425	0.711228
93	C	0.380284	0.760584	0
94	C	0.38749	0.776248	0.147618
95	C	0.400449	0.799678	0.078606
96	C	0.402647	0.801023	0.881127
97	C	0.414558	0.821754	0.762957
98	C	0.415786	0.823152	0.565795
99	C	0.429101	0.846563	0.497559
100	C	0.437871	0.862842	0.643171
101	C	0.452167	0.887929	0.621983
102	C	0.465171	0.899769	0.463283
103	C	0.477207	0.924513	0.486988
104	C	0.473264	0.931326	0.663508
105	C	0.482738	0.955078	0.731453
106	C	0.492203	0.975064	0.62085
107	C	0.500247	0.995842	0.731272
108	C	0.496896	0.991543	0.925306
109	C	0.502955	0.008298	0.079072
110	C	0.496424	0.003983	0.269036
111	C	0.505738	0.024768	0.381081
112	C	0.519274	0.044777	0.275708
113	C	0.531358	0.068545	0.347001
114	C	0.536506	0.07539	0.535732
115	C	0.548489	0.100139	0.55904
116	C	0.552396	0.111959	0.387866
117	C	0.563952	0.137049	0.362505
118	C	0.567365	0.153403	0.500705
119	C	0.579571	0.176793	0.430481
120	C	0.585434	0.178105	0.239351
121	C	0.597781	0.19879	0.121247
122	C	0.603069	0.200075	0.928079
123	C	0.615497	0.223472	0.857691
124	C	0.619229	0.239174	0
125	S	0.608218	0.22646	0.213404
126	S	0.575868	0.150611	0.149495
127	S	0.541135	0.092551	0.201849
128	S	0.520366	0.037761	0.041387
129	S	0.483921	0.962102	0.968663
130	S	0.454791	0.907304	0.796727
131	S	0.429782	0.849194	0.860871
132	S	0.388696	0.773373	0.783287
133	H	0.383834	0.771484	0.296849
134	H	0.407757	0.814793	0.171738
135	H	0.407521	0.808139	0.47193
136	H	0.43186	0.851035	0.347303
137	H	0.466285	0.891214	0.334889
138	H	0.488376	0.936627	0.378337
139	H	0.493309	0.975042	0.4665
140	H	0.508083	0.013122	0.668696
141	H	0.485353	0.986688	0.327482
142	H	0.502395	0.024771	0.532582
143	H	0.532103	0.063298	0.653694
144	H	0.554091	0.108708	0.696401
145	H	0.561303	0.149002	0.646748
146	H	0.583715	0.191853	0.518629
147	H	0.598292	0.18494	0.838898
148	H	0.621212	0.228187	0.711228
149	C	0.24026	0.619406	0
150	C	0.224527	0.610964	0.147618
151	C	0.200987	0.600502	0.078606
152	C	0.199629	0.601346	0.881127
153	C	0.178798	0.592532	0.762957
154	C	0.177391	0.592359	0.565795
155	C	0.153868	0.58227	0.497559
156	C	0.137512	0.574768	0.643171
157	C	0.112305	0.563984	0.621983
158	C	0.100383	0.56511	0.463283
159	C	0.075528	0.552423	0.486988
160	C	0.068713	0.54172	0.663508
161	C	0.044862	0.527474	0.731453
162	C	0.024788	0.51697	0.62085
163	C	0.003925	0.504267	0.731272
164	C	0.008249	0.50522	0.925306
165	C	0.991427	0.494551	0.079072
166	C	0.995778	0.492361	0.269036
167	C	0.974904	0.480912	0.381081
168	C	0.954789	0.474429	0.275708
169	C	0.930914	0.462763	0.347001
170	C	0.92403	0.461059	0.535732
171	C	0.899171	0.448314	0.55904
172	C	0.887304	0.440422	0.387866
173	C	0.862105	0.426912	0.362505
174	C	0.845696	0.414014	0.500705
175	C	0.822198	0.402845	0.430481
176	C	0.820859	0.407363	0.239351
177	C	0.800071	0.399026	0.121247
178	C	0.798762	0.403	0.928079
179	C	0.775256	0.392043	0.857691
180	C	0.759499	0.380111	0
181	S	0.772289	0.381835	0.213404
182	S	0.848461	0.425243	0.149495
183	S	0.906807	0.448566	0.201849
184	S	0.96182	0.482504	0.041387
185	S	0.037816	0.521653	0.968663
186	S	0.09287	0.547293	0.796727
187	S	0.151228	0.580325	0.860871
188	S	0.227406	0.615027	0.783287
189	H	0.229319	0.612078	0.296849
190	H	0.185804	0.592708	0.171738
191	H	0.192475	0.5991	0.47193
192	H	0.149373	0.580556	0.347303
193	H	0.108955	0.574739	0.334889
194	H	0.063338	0.551453	0.378337
195	H	0.024806	0.518092	0.4665
196	H	0.986571	0.494841	0.668696
197	H	0.013162	0.498588	0.327482
198	H	0.974914	0.477587	0.532582
199	H	0.936171	0.468729	0.653694
200	H	0.890557	0.445344	0.696401
201	H	0.850132	0.412376	0.646748
202	H	0.807082	0.391961	0.518629
203	H	0.813955	0.413329	0.838898
204	H	0.770507	0.393026	0.711228
