data_C150H72N12O6S24_2023-05-12_20:53:29
#******************************************
#
# CIF file created by Zeo++
# Zeo++ is an open source package to
# analyze microporous materials
#
#*******************************************

_cell_length_a		70.311   
_cell_length_b		70.6093   
_cell_length_c		7   
_cell_angle_alpha		90   
_cell_angle_beta		90   
_cell_angle_gamma		119.815   

_symmetry_space_group_name_H-M		'P1'
_symmetry_Int_Tables_number		1
_symmetry_cell_setting		Monoclinic

loop_
_symmetry_equiv_pos_as_xyz
'+x,+y,+z'

loop_
_atom_site_label
_atom_site_type_symbol
_atom_site_fract_x
_atom_site_fract_y
_atom_site_fract_z
1	C	0.355384	0.671286	0.999995
2	O	0.374715	0.674682	0.999991
3	C	0.337884	0.648588	0.999998
4	C	0.341254	0.631858	0
5	N	0.362893	0.63577	0
6	C	0.315528	0.644559	3e-06
7	O	0.299801	0.624996	5e-06
8	C	0.310181	0.662015	6e-06
9	C	0.289608	0.657803	5e-06
10	N	0.272579	0.635545	0
11	C	0.328522	0.684531	4e-06
12	O	0.324274	0.699626	7e-06
13	C	0.351239	0.689572	0.999999
14	C	0.367408	0.710113	0.999998
15	N	0.364188	0.728347	0
16	H	0.327859	0.615571	1e-06
17	H	0.285285	0.670306	8e-06
18	H	0.383738	0.713046	0.999997
19	C	0.644616	0.328714	0.999995
20	O	0.625285	0.325318	0.999991
21	C	0.662116	0.351412	0.999998
22	C	0.658746	0.368142	0
23	N	0.637107	0.36423	0
24	C	0.684472	0.355441	3e-06
25	O	0.700199	0.375004	5e-06
26	C	0.689819	0.337985	6e-06
27	C	0.710392	0.342197	5e-06
28	N	0.727421	0.364455	0
29	C	0.671478	0.315469	4e-06
30	O	0.675726	0.300374	7e-06
31	C	0.648761	0.310428	0.999999
32	C	0.632592	0.289887	0.999998
33	N	0.635812	0.271653	0
34	H	0.672141	0.384429	1e-06
35	H	0.714715	0.329694	8e-06
36	H	0.616262	0.286954	0.999997
37	C	0.62392	0.377288	0
38	C	0.622179	0.395223	0.045406
39	C	0.600225	0.389065	0.098145
40	C	0.586045	0.366687	0.091114
41	C	0.562806	0.354738	0.134726
42	C	0.549022	0.332375	0.140853
43	C	0.526981	0.326313	0.188557
44	C	0.524121	0.344085	0.218943
45	C	0.503785	0.343482	0.267544
46	C	0.482852	0.325915	0.246303
47	C	0.46625	0.330528	0.308466
48	C	0.474632	0.351573	0.376846
49	C	0.462159	0.361305	0.450566
50	C	0.439978	0.350561	0.492199
51	C	0.432554	0.364789	0.560952
52	C	0.449213	0.386218	0.572245
53	C	0.448025	0.405444	0.633527
54	C	0.463258	0.421088	0.755499
55	N	0.462518	0.438896	0.817445
56	C	0.446052	0.442259	0.758614
57	C	0.429767	0.427066	0.633838
58	C	0.430973	0.408721	0.573255
59	C	0.412641	0.430161	0.570816
60	C	0.411435	0.448264	0.630608
61	C	0.427341	0.463452	0.753957
62	C	0.426083	0.481774	0.814471
63	C	0.441816	0.497138	0.937217
64	C	0.441062	0.516384	0.005691
65	C	0.445567	0.525507	0.186101
66	C	0.443198	0.544402	0.198259
67	C	0.437002	0.549514	0.027011
68	C	0.433321	0.56767	0.991526
69	C	0.440446	0.586144	0.103053
70	C	0.433956	0.600939	0.029712
71	C	0.421993	0.593625	0.862645
72	C	0.412908	0.604655	0.753156
73	C	0.407884	0.620044	0.820551
74	C	0.399329	0.627959	0.675706
75	C	0.397973	0.61858	0.499137
76	C	0.390206	0.6232	0.323003
77	C	0.387732	0.641167	0.286037
78	C	0.37957	0.640912	0.098654
79	C	0.37608	0.622712	0
80	S	0.382337	0.606189	0.126976
81	S	0.407266	0.600294	0.513753
82	S	0.418673	0.568696	0.799646
83	S	0.434402	0.531198	0.853487
84	C	0.458312	0.493072	0.994564
85	N	0.46	0.475574	0.939527
86	C	0.444812	0.460626	0.819484
87	S	0.473525	0.388721	0.496838
88	S	0.502734	0.365244	0.364627
89	S	0.548466	0.367892	0.187939
90	S	0.599985	0.35355	0.019515
91	H	0.635667	0.411864	0.041759
92	H	0.595262	0.40076	0.139588
93	H	0.554276	0.320589	0.112653
94	H	0.513939	0.309518	0.200516
95	H	0.479357	0.310321	0.1875
96	H	0.448907	0.31875	0.301493
97	H	0.429299	0.333144	0.47509
98	H	0.415754	0.359396	0.601629
99	H	0.477002	0.419842	0.81188
100	H	0.418597	0.39702	0.476428
101	H	0.400128	0.418528	0.47461
102	H	0.398011	0.45044	0.579931
103	H	0.412555	0.483898	0.765895
104	H	0.450153	0.518881	0.305809
105	H	0.445826	0.553646	0.328602
106	H	0.450091	0.589202	0.231773
107	H	0.438167	0.616352	0.096947
108	H	0.410019	0.625397	0.967917
109	H	0.394321	0.639956	0.702193
110	H	0.391705	0.654155	0.388009
111	H	0.376549	0.653433	0.04165
112	H	0.471383	0.504166	0.08924
113	C	0.622317	0.245311	0
114	C	0.604346	0.225713	0.045406
115	C	0.6106	0.210027	0.098145
116	C	0.633083	0.218228	0.091114
117	C	0.645147	0.207034	0.134726
118	C	0.667615	0.215614	0.140853
119	C	0.673773	0.199746	0.188557
120	C	0.655969	0.179198	0.218943
121	C	0.656649	0.159586	0.267544
122	C	0.674336	0.156282	0.246303
123	C	0.669773	0.135184	0.308466
124	C	0.648647	0.122549	0.376846
125	C	0.638939	0.100456	0.450566
126	C	0.649791	0.089114	0.492199
127	C	0.635556	0.067559	0.560952
128	C	0.614014	0.062768	0.572245
129	C	0.594747	0.042433	0.633527
130	C	0.579009	0.041987	0.755499
131	N	0.561162	0.023511	0.817445
132	C	0.557852	0.003794	0.758614
133	C	0.573141	0.002744	0.633838
134	C	0.591526	0.022219	0.573255
135	C	0.570103	0.982639	0.570816
136	C	0.55196	0.963403	0.630608
137	C	0.536677	0.964082	0.753957
138	C	0.518316	0.944577	0.814471
139	C	0.502857	0.944908	0.937217
140	C	0.483568	0.924983	0.005691
141	C	0.474407	0.920372	0.186101
142	C	0.455476	0.899194	0.198259
143	C	0.450374	0.887941	0.027011
144	C	0.432188	0.866194	0.991526
145	C	0.413644	0.85487	0.103053
146	C	0.398838	0.83368	0.029712
147	C	0.406214	0.829076	0.862645
148	C	0.395191	0.809058	0.753156
149	C	0.379784	0.788732	0.820551
150	C	0.371882	0.772344	0.675706
151	C	0.381289	0.78034	0.499137
152	C	0.376686	0.768017	0.323003
153	C	0.358685	0.747657	0.286037
154	C	0.358972	0.739799	0.098654
155	C	0.377228	0.754464	0
156	S	0.393768	0.777144	0.126976
157	S	0.399584	0.807795	0.513753
158	S	0.431215	0.850614	0.799646
159	S	0.468744	0.903606	0.853487
160	C	0.506872	0.965354	0.994564
161	N	0.524405	0.984465	0.939527
162	C	0.539445	0.984262	0.819484
163	S	0.611415	0.084439	0.496838
164	S	0.634839	0.13686	0.364627
165	S	0.632015	0.179676	0.187939
166	S	0.6462	0.245171	0.019515
167	H	0.587615	0.222539	0.041759
168	H	0.598896	0.193443	0.139588
169	H	0.67941	0.232579	0.112653
170	H	0.690657	0.203517	0.200516
171	H	0.68998	0.168344	0.1875
172	H	0.681644	0.129681	0.301493
173	H	0.667289	0.095852	0.47509
174	H	0.641025	0.056234	0.601629
175	H	0.580207	0.05689	0.81188
176	H	0.6033	0.021575	0.476428
177	H	0.581809	0.981791	0.47461
178	H	0.549829	0.947893	0.579931
179	H	0.516237	0.929015	0.765895
180	H	0.481032	0.931532	0.305809
181	H	0.446199	0.892595	0.328602
182	H	0.410543	0.86141	0.231773
183	H	0.383373	0.82251	0.096947
184	H	0.374411	0.785522	0.967917
185	H	0.359875	0.755413	0.702193
186	H	0.345652	0.738667	0.388009
187	H	0.346432	0.724322	0.04165
188	H	0.495703	0.967293	0.08924
189	C	0.753423	0.377062	0
190	C	0.773135	0.378726	0.045406
191	C	0.788835	0.40057	0.098145
192	C	0.780531	0.414747	0.091114
193	C	0.791706	0.437889	0.134726
194	C	0.783023	0.451673	0.140853
195	C	0.798906	0.473602	0.188557
196	C	0.819569	0.476379	0.218943
197	C	0.839225	0.496594	0.267544
198	C	0.842472	0.517465	0.246303
199	C	0.863636	0.533949	0.308466
200	C	0.87638	0.525539	0.376846
201	C	0.898562	0.537901	0.450566
202	C	0.909891	0.559987	0.492199
203	C	0.93155	0.567314	0.560952
204	C	0.936432	0.550675	0.572245
205	C	0.956888	0.551785	0.633527
206	C	0.957393	0.536586	0.755499
207	N	0.97598	0.537255	0.817445
208	C	0.995756	0.553609	0.758614
209	C	0.996751	0.569852	0.633838
210	C	0.977161	0.568721	0.573255
211	C	0.016916	0.586862	0.570816
212	C	0.036265	0.587994	0.630608
213	C	0.035641	0.572128	0.753957
214	C	0.055261	0.573311	0.814471
215	C	0.054986	0.557615	0.937217
216	C	0.07503	0.558294	0.005691
217	C	0.079686	0.553783	0.186101
218	C	0.100985	0.556066	0.198259
219	C	0.112284	0.562207	0.027011
220	C	0.134151	0.565798	0.991526
221	C	0.14557	0.558647	0.103053
222	C	0.166865	0.565042	0.029712
223	C	0.171453	0.57696	0.862645
224	C	0.19156	0.585949	0.753156
225	C	0.211991	0.590885	0.820551
226	C	0.228448	0.599359	0.675706
227	C	0.220398	0.600742	0.499137
228	C	0.232768	0.608444	0.323003
229	C	0.253243	0.610837	0.286037
230	C	0.261118	0.61895	0.098654
231	C	0.246351	0.622486	0
232	S	0.223555	0.616329	0.126976
233	S	0.19281	0.591573	0.513753
234	S	0.149771	0.580352	0.799646
235	S	0.096514	0.564858	0.853487
236	C	0.034476	0.541235	0.994564
237	N	0.015255	0.539622	0.939527
238	C	0.015403	0.554774	0.819484
239	S	0.91472	0.526502	0.496838
240	S	0.862086	0.497557	0.364627
241	S	0.819179	0.452094	0.187939
242	S	0.753475	0.40094	0.019515
243	H	0.776378	0.365258	0.041759
244	H	0.805502	0.405459	0.139588
245	H	0.765974	0.446494	0.112653
246	H	0.795064	0.486627	0.200516
247	H	0.830323	0.520997	0.1875
248	H	0.869108	0.55123	0.301493
249	H	0.903072	0.570666	0.47509
250	H	0.942881	0.584032	0.601629
251	H	0.94245	0.52293	0.81188
252	H	0.977763	0.581066	0.476428
253	H	0.017722	0.599343	0.47461
254	H	0.051819	0.601328	0.579931
255	H	0.070867	0.586748	0.765895
256	H	0.068475	0.549248	0.305809
257	H	0.107635	0.553421	0.328602
258	H	0.139026	0.54905	0.231773
259	H	0.17812	0.5608	0.096947
260	H	0.21523	0.588743	0.967917
261	H	0.245464	0.604293	0.702193
262	H	0.262303	0.606839	0.388009
263	H	0.276679	0.621906	0.04165
264	H	0.032574	0.528202	0.08924
