data_C102H48N12O6S12_2023-05-13_05:13:11
#******************************************
#
# CIF file created by Zeo++
# Zeo++ is an open source package to
# analyze microporous materials
#
#*******************************************

_cell_length_a		57.2383   
_cell_length_b		57.5367   
_cell_length_c		7   
_cell_angle_alpha		90   
_cell_angle_beta		90   
_cell_angle_gamma		119.773   

_symmetry_space_group_name_H-M		'P1'
_symmetry_Int_Tables_number		1
_symmetry_cell_setting		Monoclinic

loop_
_symmetry_equiv_pos_as_xyz
'+x,+y,+z'

loop_
_atom_site_label
_atom_site_type_symbol
_atom_site_fract_x
_atom_site_fract_y
_atom_site_fract_z
1	C	0.360415	0.672333	0.999995
2	O	0.384157	0.676499	0.999991
3	C	0.338941	0.64449	0.999998
4	C	0.343099	0.623967	0
5	N	0.369677	0.628766	0
6	C	0.311484	0.639548	3e-06
7	O	0.292186	0.61555	5e-06
8	C	0.304898	0.660961	6e-06
9	C	0.27963	0.655793	5e-06
10	N	0.258735	0.62849	0
11	C	0.327404	0.688581	4e-06
12	O	0.322171	0.707098	7e-06
13	C	0.355304	0.694764	0.999999
14	C	0.375145	0.719961	0.999998
15	N	0.37117	0.742329	0
16	H	0.326661	0.603989	1e-06
17	H	0.274308	0.671131	8e-06
18	H	0.395202	0.723559	0.999997
19	C	0.639585	0.327667	0.999995
20	O	0.615843	0.323501	0.999991
21	C	0.661059	0.35551	0.999998
22	C	0.656901	0.376033	0
23	N	0.630323	0.371234	0
24	C	0.688516	0.360452	3e-06
25	O	0.707814	0.38445	5e-06
26	C	0.695102	0.339039	6e-06
27	C	0.72037	0.344207	5e-06
28	N	0.741265	0.37151	0
29	C	0.672596	0.311419	4e-06
30	O	0.677829	0.292902	7e-06
31	C	0.644696	0.305236	0.999999
32	C	0.624855	0.280039	0.999998
33	N	0.62883	0.257671	0
34	H	0.673339	0.396011	1e-06
35	H	0.725692	0.328869	8e-06
36	H	0.604798	0.276441	0.999997
37	C	0.385889	0.612748	0
38	C	0.392167	0.606546	0.825613
39	C	0.406566	0.592319	0.846575
40	C	0.410739	0.588196	0.035953
41	C	0.424465	0.574634	0.110102
42	C	0.428615	0.570534	0.298583
43	C	0.443007	0.556314	0.318955
44	C	0.449825	0.549577	0.146046
45	C	0.464593	0.534985	0.109161
46	C	0.470253	0.529394	0.927519
47	N	0.483737	0.51607	0.889082
48	C	0.492774	0.507141	0.034585
49	C	0.488018	0.51184	0.224867
50	C	0.473959	0.525731	0.259036
51	C	0.497125	0.502841	0.37791
52	C	0.510978	0.489155	0.343872
53	C	0.515879	0.484312	0.156443
54	C	0.529934	0.470425	0.121716
55	C	0.535148	0.465274	0.93602
56	C	0.549804	0.450793	0.891091
57	C	0.556118	0.444558	0.714385
58	C	0.570556	0.430291	0.726468
59	C	0.575247	0.425654	0.912393
60	C	0.589178	0.411888	0.978525
61	C	0.593901	0.40722	0.165316
62	C	0.608348	0.392944	0.17789
63	C	0.614111	0.387252	0
64	S	0.602626	0.398602	0.821006
65	S	0.561855	0.438883	0.068552
66	C	0.525457	0.47485	0.792232
67	N	0.511851	0.488292	0.819993
68	C	0.506838	0.493246	3e-05
69	S	0.438296	0.560968	0.961804
70	S	0.396842	0.601925	0.18553
71	H	0.386901	0.611749	0.689885
72	H	0.413468	0.585501	0.726176
73	H	0.421734	0.577332	0.419199
74	H	0.447952	0.551427	0.456989
75	H	0.464095	0.535479	0.798877
76	H	0.470437	0.529211	0.406151
77	H	0.493511	0.506411	0.524766
78	H	0.517909	0.482306	0.464773
79	H	0.536742	0.463698	0.243841
80	H	0.550782	0.449832	0.579184
81	H	0.577077	0.42385	0.60192
82	H	0.587357	0.413685	0.289596
83	H	0.61401	0.387349	0.310406
84	H	0.528214	0.472125	0.64203
85	C	0.387162	0.774366	0
86	C	0.393353	0.78677	0.825613
87	C	0.407556	0.815224	0.846575
88	C	0.411673	0.823471	0.035953
89	C	0.425212	0.850596	0.110102
90	C	0.429305	0.858795	0.298583
91	C	0.443501	0.887235	0.318955
92	C	0.450227	0.900709	0.146046
93	C	0.464794	0.929892	0.109161
94	C	0.470376	0.941076	0.927519
95	N	0.483677	0.967723	0.889082
96	C	0.492591	0.985581	0.034585
97	C	0.4879	0.976183	0.224867
98	C	0.474032	0.948401	0.259036
99	C	0.496884	0.99418	0.37791
100	C	0.510547	0.021553	0.343872
101	C	0.515381	0.031239	0.156443
102	C	0.529246	0.059014	0.121716
103	C	0.534388	0.069316	0.93602
104	C	0.548844	0.098278	0.891091
105	C	0.555069	0.110751	0.714385
106	C	0.569312	0.139284	0.726468
107	C	0.573942	0.148556	0.912393
108	C	0.587684	0.176086	0.978525
109	C	0.592344	0.185421	0.165316
110	C	0.606596	0.213971	0.17789
111	C	0.612279	0.225357	0
112	S	0.600948	0.202659	0.821006
113	S	0.560734	0.122094	0.068552
114	C	0.524828	0.050164	0.792232
115	N	0.511408	0.023279	0.819993
116	C	0.506463	0.013372	3e-05
117	S	0.438855	0.877927	0.961804
118	S	0.397966	0.796011	0.18553
119	H	0.388158	0.776364	0.689885
120	H	0.414363	0.828863	0.726176
121	H	0.422518	0.845199	0.419199
122	H	0.448379	0.897008	0.456989
123	H	0.464301	0.928907	0.798877
124	H	0.470558	0.941441	0.406151
125	H	0.49332	0.987039	0.524766
126	H	0.517385	0.035251	0.464773
127	H	0.535961	0.072467	0.243841
128	H	0.549804	0.100206	0.579184
129	H	0.575742	0.152167	0.60192
130	H	0.58589	0.17249	0.289596
131	H	0.612182	0.225161	0.310406
132	H	0.527549	0.055614	0.64203
133	C	0.226531	0.612471	0
134	C	0.214062	0.606268	0.825613
135	C	0.185461	0.592041	0.846575
136	C	0.177171	0.587918	0.035953
137	C	0.149905	0.574355	0.110102
138	C	0.141663	0.570256	0.298583
139	C	0.113075	0.556035	0.318955
140	C	0.099531	0.549299	0.146046
141	C	0.070195	0.534707	0.109161
142	C	0.058954	0.529115	0.927519
143	N	0.032168	0.515792	0.889082
144	C	0.014217	0.506863	0.034585
145	C	0.023664	0.511562	0.224867
146	C	0.05159	0.525453	0.259036
147	C	0.005574	0.502564	0.37791
148	C	0.978058	0.488877	0.343872
149	C	0.968322	0.484034	0.156443
150	C	0.940402	0.470146	0.121716
151	C	0.930046	0.464995	0.93602
152	C	0.900934	0.450514	0.891091
153	C	0.888395	0.444276	0.714385
154	C	0.859714	0.43001	0.726468
155	C	0.850394	0.425375	0.912393
156	C	0.82272	0.411611	0.978525
157	C	0.813337	0.406944	0.165316
158	C	0.784638	0.392669	0.17789
159	C	0.773192	0.386975	0
160	S	0.796009	0.398324	0.821006
161	S	0.876993	0.438607	0.068552
162	C	0.949297	0.474571	0.792232
163	N	0.976323	0.488013	0.819993
164	C	0.986281	0.492967	3e-05
165	S	0.122431	0.56069	0.961804
166	S	0.204774	0.601648	0.18553
167	H	0.224523	0.611471	0.689885
168	H	0.171751	0.585221	0.726176
169	H	0.15533	0.577054	0.419199
170	H	0.103251	0.551149	0.456989
171	H	0.071186	0.535199	0.798877
172	H	0.058587	0.528933	0.406151
173	H	0.012751	0.506135	0.524766
174	H	0.964288	0.482028	0.464773
175	H	0.926879	0.46342	0.243841
176	H	0.898995	0.449547	0.579184
177	H	0.846763	0.423567	0.60192
178	H	0.826335	0.41341	0.289596
179	H	0.77339	0.387075	0.310406
180	H	0.943819	0.471846	0.64203
