data_C78H30N6O6S12_2023-05-12_01:40:29
#******************************************
#
# CIF file created by Zeo++
# Zeo++ is an open source package to
# analyze microporous materials
#
#*******************************************

_cell_length_a		50.5587   
_cell_length_b		50.8572   
_cell_length_c		7   
_cell_angle_alpha		90   
_cell_angle_beta		90   
_cell_angle_gamma		119.744   

_symmetry_space_group_name_H-M		'P1'
_symmetry_Int_Tables_number		1
_symmetry_cell_setting		Monoclinic

loop_
_symmetry_equiv_pos_as_xyz
'+x,+y,+z'

loop_
_atom_site_label
_atom_site_type_symbol
_atom_site_fract_x
_atom_site_fract_y
_atom_site_fract_z
1	C	0.363989	0.673075	0.999995
2	O	0.390865	0.677787	0.999991
3	C	0.339697	0.641585	0.999998
4	C	0.344419	0.618374	0
5	N	0.374504	0.623801	0
6	C	0.308616	0.635995	3e-06
7	O	0.286784	0.608854	5e-06
8	C	0.301145	0.660213	6e-06
9	C	0.272543	0.654369	5e-06
10	N	0.248906	0.623488	0
11	C	0.326606	0.691452	4e-06
12	O	0.320669	0.712395	7e-06
13	C	0.358188	0.698445	0.999999
14	C	0.380632	0.726943	0.999998
15	N	0.376117	0.752241	0
16	H	0.325823	0.595778	1e-06
17	H	0.266506	0.671715	8e-06
18	H	0.403337	0.731013	0.999997
19	C	0.636011	0.326925	0.999995
20	O	0.609135	0.322213	0.999991
21	C	0.660303	0.358415	0.999998
22	C	0.655581	0.381626	0
23	N	0.625496	0.376199	0
24	C	0.691384	0.364005	3e-06
25	O	0.713216	0.391146	5e-06
26	C	0.698855	0.339787	6e-06
27	C	0.727457	0.345631	5e-06
28	N	0.751094	0.376512	0
29	C	0.673394	0.308548	4e-06
30	O	0.679331	0.287605	7e-06
31	C	0.641812	0.301555	0.999999
32	C	0.619368	0.273057	0.999998
33	N	0.623883	0.247759	0
34	H	0.674177	0.404222	1e-06
35	H	0.733494	0.328285	8e-06
36	H	0.596663	0.268987	0.999997
37	C	0.607131	0.394316	0
38	C	0.613568	0.389128	0.181504
39	S	0.599207	0.403269	0.347827
40	C	0.584207	0.416491	0.176023
41	C	0.567736	0.432088	0.227096
42	C	0.561428	0.438609	0.408003
43	C	0.544616	0.454347	0.404819
44	C	0.538465	0.459489	0.221588
45	C	0.522087	0.474672	0.173087
46	C	0.508292	0.487464	0.132338
47	C	0.490605	0.503869	0.080135
48	C	0.476811	0.516665	0.039461
49	C	0.460434	0.531858	0.991132
50	C	0.454259	0.537005	0.807898
51	C	0.437472	0.55276	0.804966
52	C	0.431152	0.559174	0.986063
53	C	0.414798	0.575047	0.031905
54	C	0.410012	0.593924	0.911388
55	C	0.392869	0.605684	0
56	C	0.384686	0.595885	0.184106
57	S	0.397904	0.572154	0.250644
58	S	0.446075	0.545941	0.15699
59	S	0.552871	0.44543	0.055973
60	C	0.590409	0.409895	0.994819
61	H	0.625896	0.377825	0.225419
62	H	0.568443	0.432481	0.539036
63	H	0.537499	0.461442	0.531455
64	H	0.461343	0.529876	0.681273
65	H	0.430283	0.558844	0.674505
66	H	0.41864	0.599157	0.766622
67	H	0.371693	0.601335	0.28307
68	H	0.583254	0.415981	0.864228
69	C	0.605166	0.211212	0
70	C	0.610339	0.222757	0.181504
71	S	0.596224	0.194448	0.347827
72	C	0.583035	0.16642	0.176023
73	C	0.567472	0.134571	0.227096
74	C	0.560961	0.121829	0.408003
75	C	0.545258	0.089502	0.404819
76	C	0.540131	0.078288	0.221588
77	C	0.524981	0.046941	0.173087
78	C	0.512218	0.020537	0.132338
79	C	0.495849	0.986678	0.080135
80	C	0.483082	0.960271	0.039461
81	C	0.467924	0.928918	0.991132
82	C	0.462791	0.917674	0.807898
83	C	0.44707	0.885354	0.804966
84	C	0.440668	0.872706	0.986063
85	C	0.424826	0.840698	0.031905
86	C	0.40591	0.817173	0.911388
87	C	0.3942	0.788475	0
88	C	0.404074	0.79011	0.184106
89	S	0.427815	0.826825	0.250644
90	S	0.453867	0.900668	0.15699
91	S	0.554162	0.106558	0.055973
92	C	0.589621	0.179132	0.994819
93	H	0.621615	0.246225	0.225419
94	H	0.567074	0.134882	0.539036
95	H	0.538176	0.075386	0.531455
96	H	0.469907	0.93179	0.681273
97	H	0.441003	0.872173	0.674505
98	H	0.400617	0.820523	0.766622
99	H	0.398673	0.771805	0.28307
100	H	0.583552	0.165982	0.864228
101	C	0.78723	0.394003	0
102	C	0.77562	0.387646	0.181504
103	S	0.804096	0.401814	0.347827
104	C	0.832284	0.416619	0.176023
105	C	0.864319	0.432871	0.227096
106	C	0.877138	0.439093	0.408003
107	C	0.909653	0.455682	0.404819
108	C	0.920931	0.461754	0.221588
109	C	0.952459	0.477917	0.173087
110	C	0.979017	0.491529	0.132338
111	C	0.013073	0.508983	0.080135
112	C	0.039633	0.522594	0.039461
113	C	0.071169	0.538755	0.991132
114	C	0.082476	0.544852	0.807898
115	C	0.114985	0.561416	0.804966
116	C	0.127708	0.56765	0.986063
117	C	0.159904	0.583785	0.031905
118	C	0.183604	0.588433	0.911388
119	C	0.212458	0.605371	0
120	C	0.210767	0.613535	0.184106
121	S	0.173808	0.600551	0.250644
122	S	0.099585	0.552921	0.15699
123	S	0.892495	0.447543	0.055973
124	C	0.819497	0.410504	0.994819
125	H	0.752015	0.37548	0.225419
126	H	0.86401	0.432168	0.539036
127	H	0.923852	0.462702	0.531455
128	H	0.068277	0.537865	0.681273
129	H	0.128241	0.568514	0.674505
130	H	0.18027	0.579851	0.766622
131	H	0.229161	0.626391	0.28307
132	H	0.832721	0.417567	0.864228
