data_C84H36N6O6S18_2023-05-13_18:21:39
#******************************************
#
# CIF file created by Zeo++
# Zeo++ is an open source package to
# analyze microporous materials
#
#*******************************************

_cell_length_a		50.9118   
_cell_length_b		51.2103   
_cell_length_c		7   
_cell_angle_alpha		90   
_cell_angle_beta		90   
_cell_angle_gamma		119.745   

_symmetry_space_group_name_H-M		'P1'
_symmetry_Int_Tables_number		1
_symmetry_cell_setting		Monoclinic

loop_
_symmetry_equiv_pos_as_xyz
'+x,+y,+z'

loop_
_atom_site_label
_atom_site_type_symbol
_atom_site_fract_x
_atom_site_fract_y
_atom_site_fract_z
1	C	0.363776	0.673031	0.999995
2	O	0.390467	0.677711	0.999991
3	C	0.339652	0.641757	0.999998
4	C	0.34434	0.618706	0
5	N	0.374217	0.624096	0
6	C	0.308786	0.636206	3e-06
7	O	0.287105	0.609251	5e-06
8	C	0.301368	0.660257	6e-06
9	C	0.272964	0.654453	5e-06
10	N	0.24949	0.623785	0
11	C	0.326653	0.691281	4e-06
12	O	0.320758	0.71208	7e-06
13	C	0.358016	0.698226	0.999999
14	C	0.380306	0.726529	0.999998
15	N	0.375824	0.751652	0
16	H	0.325872	0.596265	1e-06
17	H	0.26697	0.671681	8e-06
18	H	0.402854	0.73057	0.999997
19	C	0.636224	0.326969	0.999995
20	O	0.609533	0.322289	0.999991
21	C	0.660348	0.358243	0.999998
22	C	0.65566	0.381294	0
23	N	0.625783	0.375904	0
24	C	0.691214	0.363794	3e-06
25	O	0.712895	0.390749	5e-06
26	C	0.698632	0.339743	6e-06
27	C	0.727036	0.345547	5e-06
28	N	0.75051	0.376215	0
29	C	0.673347	0.308719	4e-06
30	O	0.679242	0.28792	7e-06
31	C	0.641984	0.301774	0.999999
32	C	0.619694	0.273471	0.999998
33	N	0.624176	0.248348	0
34	H	0.674128	0.403735	1e-06
35	H	0.73303	0.328319	8e-06
36	H	0.597146	0.26943	0.999997
37	C	0.607546	0.393896	0
38	C	0.592028	0.409208	0.975581
39	C	0.584232	0.416899	0.154967
40	C	0.566381	0.434512	0.180473
41	C	0.558919	0.441873	0.353482
42	C	0.542712	0.457863	0.331347
43	C	0.538288	0.462229	0.142434
44	C	0.521335	0.478956	0.065833
45	C	0.51791	0.482337	0.873953
46	S	0.498899	0.501094	0.823858
47	C	0.494536	0.505395	0.067853
48	C	0.507611	0.492495	0.177803
49	S	0.503248	0.496797	0.421799
50	C	0.484236	0.515554	0.371703
51	C	0.480812	0.518934	0.179823
52	C	0.463859	0.53566	0.103218
53	C	0.459436	0.540027	0.914303
54	C	0.443229	0.556015	0.892218
55	C	0.435765	0.563376	0.065213
56	C	0.417886	0.581013	0.088032
57	C	0.410659	0.58814	0.263306
58	S	0.391188	0.607349	0.241317
59	C	0.392454	0.606104	0
60	C	0.407187	0.591571	0.934029
61	S	0.44829	0.551017	0.251395
62	S	0.553854	0.446872	0.994251
63	C	0.594306	0.406959	0.306498
64	S	0.61294	0.388573	0.232209
65	H	0.58655	0.414614	0.836989
66	H	0.564547	0.436319	0.491086
67	H	0.535027	0.465444	0.451883
68	H	0.525784	0.47457	0.755073
69	H	0.476363	0.52332	0.490582
70	H	0.46712	0.532447	0.793757
71	H	0.437586	0.561584	0.75471
72	H	0.415691	0.583174	0.404294
73	H	0.410114	0.588685	0.783864
74	H	0.59186	0.409371	0.457783
75	C	0.605589	0.212052	0
76	C	0.590306	0.181431	0.975581
77	C	0.58263	0.166048	0.154967
78	C	0.56505	0.130823	0.180473
79	C	0.557703	0.116101	0.353482
80	C	0.541743	0.084121	0.331347
81	C	0.537385	0.07539	0.142434
82	C	0.520689	0.041937	0.065833
83	C	0.517315	0.035178	0.873953
84	S	0.498593	0.997664	0.823858
85	C	0.4943	0.989059	0.067853
86	C	0.507176	0.014859	0.177803
87	S	0.502883	0.006253	0.421799
88	C	0.484161	0.968739	0.371703
89	C	0.480788	0.961981	0.179823
90	C	0.464093	0.928528	0.103218
91	C	0.459734	0.919798	0.914303
92	C	0.443776	0.88782	0.892218
93	C	0.436429	0.873095	0.065213
94	C	0.418825	0.837819	0.088032
95	C	0.411712	0.823562	0.263306
96	S	0.39254	0.785143	0.241317
97	C	0.393782	0.787638	0
98	C	0.408288	0.816705	0.934029
99	S	0.448765	0.897812	0.251395
100	S	0.552713	0.106104	0.994251
101	C	0.592551	0.185927	0.306498
102	S	0.610902	0.222697	0.232209
103	H	0.58491	0.17062	0.836989
104	H	0.563246	0.127207	0.491086
105	H	0.534176	0.068958	0.451883
106	H	0.525067	0.050713	0.755073
107	H	0.47641	0.953205	0.490582
108	H	0.4673	0.934959	0.793757
109	H	0.438218	0.876684	0.75471
110	H	0.416668	0.833492	0.404294
111	H	0.411167	0.822479	0.783864
112	H	0.590143	0.181102	0.457783
113	C	0.786396	0.393585	0
114	C	0.817196	0.408895	0.975581
115	C	0.832669	0.416587	0.154967
116	C	0.8681	0.434199	0.180473
117	C	0.882908	0.44156	0.353482
118	C	0.915076	0.45755	0.331347
119	C	0.923858	0.461915	0.142434
120	C	0.957507	0.478641	0.065833
121	C	0.964304	0.482019	0.873953
122	S	0.002038	0.500775	0.823858
123	C	0.010694	0.50508	0.067853
124	C	0.984743	0.49218	0.177803
125	S	0.993399	0.496484	0.421799
126	C	0.031133	0.515241	0.371703
127	C	0.03793	0.518619	0.179823
128	C	0.071579	0.535345	0.103218
129	C	0.08036	0.539709	0.914303
130	C	0.112525	0.555699	0.892218
131	C	0.127336	0.563063	0.065213
132	C	0.162818	0.580701	0.088032
133	C	0.17716	0.587832	0.263306
134	S	0.215803	0.607042	0.241317
135	C	0.213294	0.605793	0
136	C	0.184056	0.591258	0.934029
137	S	0.102475	0.550705	0.251395
138	S	0.892964	0.446557	0.994251
139	C	0.812674	0.406648	0.306498
140	S	0.775688	0.388264	0.232209
141	H	0.82807	0.4143	0.836989
142	H	0.871738	0.436008	0.491086
143	H	0.930327	0.465132	0.451883
144	H	0.948679	0.474251	0.755073
145	H	0.046758	0.523009	0.490582
146	H	0.065111	0.532128	0.793757
147	H	0.123726	0.561266	0.75471
148	H	0.167171	0.582867	0.404294
149	H	0.178249	0.58837	0.783864
150	H	0.817527	0.409061	0.457783
