data_C57H30N6O6S6_2023-05-30_03:53:41
#******************************************
#
# CIF file created by Zeo++
# Zeo++ is an open source package to
# analyze microporous materials
#
#*******************************************

_cell_length_a		33.1572   
_cell_length_b		33.4559   
_cell_length_c		7   
_cell_angle_alpha		90   
_cell_angle_beta		90   
_cell_angle_gamma		119.61   

_symmetry_space_group_name_H-M		'P1'
_symmetry_Int_Tables_number		1
_symmetry_cell_setting		Monoclinic

loop_
_symmetry_equiv_pos_as_xyz
'+x,+y,+z'

loop_
_atom_site_label
_atom_site_type_symbol
_atom_site_fract_x
_atom_site_fract_y
_atom_site_fract_z
1	C	0.380051	0.676395	0.999995
2	O	0.421013	0.683549	0.999991
3	C	0.34314	0.62859	0.999998
4	C	0.350434	0.593352	0
5	N	0.396287	0.601593	0
6	C	0.295769	0.620104	3e-06
7	O	0.262592	0.578901	5e-06
8	C	0.284278	0.65687	6e-06
9	C	0.240689	0.647997	5e-06
10	N	0.204774	0.601117	0
11	C	0.322972	0.704293	4e-06
12	O	0.313833	0.736087	7e-06
13	C	0.371101	0.714909	0.999999
14	C	0.405207	0.758173	0.999998
15	N	0.398219	0.796578	0
16	H	0.322172	0.559049	1e-06
17	H	0.231413	0.674331	8e-06
18	H	0.439811	0.764351	0.999997
19	C	0.619949	0.323605	0.999995
20	O	0.578987	0.316451	0.999991
21	C	0.65686	0.37141	0.999998
22	C	0.649566	0.406648	0
23	N	0.603713	0.398407	0
24	C	0.704231	0.379896	3e-06
25	O	0.737408	0.421099	5e-06
26	C	0.715722	0.34313	6e-06
27	C	0.759311	0.352003	5e-06
28	N	0.795226	0.398883	0
29	C	0.677028	0.295707	4e-06
30	O	0.686167	0.263913	7e-06
31	C	0.628899	0.285091	0.999999
32	C	0.594793	0.241827	0.999998
33	N	0.601781	0.203422	0
34	H	0.677828	0.440951	1e-06
35	H	0.768587	0.325669	8e-06
36	H	0.560189	0.235649	0.999997
37	C	0.424365	0.574089	0
38	C	0.452221	0.554735	0.020363
39	C	0.451685	0.539518	0.212409
40	C	0.477045	0.517912	0.279565
41	C	0.486068	0.512473	0.46229
42	C	0.513947	0.488261	0.472108
43	C	0.519405	0.480482	0.264412
44	C	0.544056	0.457666	0.206085
45	C	0.565127	0.441565	0.33089
46	S	0.59191	0.415783	0.215413
47	C	0.575635	0.425911	0
48	C	0.550441	0.448291	0.011848
49	C	0.497941	0.497803	0.158107
50	C	0.423025	0.548446	0.326952
51	S	0.397482	0.574524	0.204698
52	H	0.472154	0.551876	0.903988
53	H	0.475628	0.523874	0.587619
54	H	0.494832	0.455886	0.550671
55	H	0.547401	0.510251	0.54117
56	H	0.566544	0.443327	0.485159
57	H	0.537242	0.457467	0.887813
58	H	0.495719	0.496961	0.004264
59	H	0.41525	0.540902	0.476992
60	C	0.425643	0.851585	0
61	C	0.444877	0.898288	0.020363
62	C	0.460176	0.912857	0.212409
63	C	0.481693	0.95933	0.279565
64	C	0.487089	0.973634	0.46229
65	C	0.511206	0.025179	0.472108
66	C	0.518981	0.038285	0.264412
67	C	0.54172	0.085258	0.206085
68	C	0.557738	0.122035	0.33089
69	S	0.583442	0.174056	0.215413
70	C	0.573389	0.14794	0
71	C	0.551093	0.100863	0.011848
72	C	0.50174	0.999909	0.158107
73	C	0.451427	0.875705	0.326952
74	S	0.425416	0.824614	0.204698
75	H	0.447594	0.920803	0.903988
76	H	0.475711	0.952015	0.587619
77	H	0.543895	0.038429	0.550671
78	H	0.488842	0.036386	0.54117
79	H	0.555956	0.121686	0.485159
80	H	0.541973	0.078728	0.887813
81	H	0.502604	0.998552	0.004264
82	H	0.45907	0.875514	0.476992
83	C	0.149272	0.573613	0
84	C	0.102182	0.546265	0.020363
85	C	0.087419	0.546913	0.212409
86	C	0.040541	0.522046	0.279565
87	C	0.026122	0.513181	0.46229
88	C	0.974126	0.485848	0.472108
89	C	0.960893	0.48052	0.264412
90	C	0.913503	0.456364	0.206085
91	C	0.876414	0.435688	0.33089
92	S	0.823927	0.409449	0.215413
93	C	0.850254	0.425436	0
94	C	0.897746	0.450133	0.011848
95	C	0.999598	0.501575	0.158107
96	C	0.124828	0.575137	0.326952
97	S	0.176382	0.600149	0.204698
98	H	0.079531	0.526608	0.903988
99	H	0.04794	0.523399	0.587619
100	H	0.960553	0.504972	0.550671
101	H	0.963037	0.45265	0.54117
102	H	0.876779	0.434275	0.485159
103	H	0.920064	0.463092	0.887813
104	H	0.000956	0.503774	0.004264
105	H	0.12496	0.582871	0.476992
