data_C114H48N12O6S24_2023-05-13_09:07:32
#******************************************
#
# CIF file created by Zeo++
# Zeo++ is an open source package to
# analyze microporous materials
#
#*******************************************

_cell_length_a		66.1236   
_cell_length_b		66.422   
_cell_length_c		7   
_cell_angle_alpha		90   
_cell_angle_beta		90   
_cell_angle_gamma		119.804   

_symmetry_space_group_name_H-M		'P1'
_symmetry_Int_Tables_number		1
_symmetry_cell_setting		Monoclinic

loop_
_symmetry_equiv_pos_as_xyz
'+x,+y,+z'

loop_
_atom_site_label
_atom_site_type_symbol
_atom_site_fract_x
_atom_site_fract_y
_atom_site_fract_z
1	C	0.356779	0.671576	0.999995
2	O	0.377333	0.675186	0.999991
3	C	0.338176	0.647451	0.999998
4	C	0.341764	0.629668	0
5	N	0.364773	0.633826	0
6	C	0.314406	0.643168	3e-06
7	O	0.297688	0.622375	5e-06
8	C	0.308716	0.661722	6e-06
9	C	0.286841	0.657245	5e-06
10	N	0.268739	0.633587	0
11	C	0.328212	0.685655	4e-06
12	O	0.323692	0.7017	7e-06
13	C	0.352367	0.691013	0.999999
14	C	0.369555	0.712846	0.999998
15	N	0.366126	0.732227	0
16	H	0.327525	0.612357	1e-06
17	H	0.282242	0.670535	8e-06
18	H	0.386919	0.715964	0.999997
19	C	0.643221	0.328424	0.999995
20	O	0.622667	0.324814	0.999991
21	C	0.661824	0.352549	0.999998
22	C	0.658236	0.370332	0
23	N	0.635227	0.366174	0
24	C	0.685594	0.356832	3e-06
25	O	0.702312	0.377625	5e-06
26	C	0.691284	0.338278	6e-06
27	C	0.713159	0.342755	5e-06
28	N	0.731261	0.366413	0
29	C	0.671788	0.314345	4e-06
30	O	0.676308	0.2983	7e-06
31	C	0.647633	0.308987	0.999999
32	C	0.630445	0.287154	0.999998
33	N	0.633874	0.267773	0
34	H	0.672475	0.387643	1e-06
35	H	0.717758	0.329465	8e-06
36	H	0.613081	0.284036	0.999997
37	C	0.378798	0.619946	0
38	C	0.372981	0.623351	0.180163
39	C	0.38326	0.615743	0.321639
40	C	0.396387	0.60671	0.244152
41	C	0.409071	0.59768	0.348813
42	C	0.415874	0.601952	0.538136
43	C	0.427928	0.590266	0.599327
44	C	0.430199	0.577177	0.456131
45	C	0.441277	0.563122	0.472294
46	C	0.445828	0.554993	0.639404
47	C	0.457068	0.541683	0.607253
48	C	0.461005	0.539821	0.415774
49	C	0.471762	0.527722	0.328479
50	N	0.473854	0.526703	0.142076
51	C	0.484625	0.514016	0.098092
52	C	0.489625	0.509332	0.914391
53	C	0.500602	0.496209	0.89001
54	C	0.506844	0.487509	0.046357
55	C	0.50185	0.492199	0.230069
56	C	0.490853	0.505304	0.254451
57	S	0.482778	0.513481	0.460537
58	N	0.5176	0.474806	0.002351
59	C	0.519601	0.473708	0.815915
60	C	0.530193	0.461456	0.728556
61	C	0.532982	0.458521	0.536646
62	C	0.544284	0.445265	0.504591
63	C	0.550108	0.438352	0.672131
64	C	0.561529	0.424638	0.688619
65	C	0.561974	0.409819	0.552322
66	C	0.574924	0.398982	0.611762
67	C	0.584336	0.405711	0.792626
68	C	0.598397	0.398331	0.898207
69	C	0.607259	0.404543	0.081852
70	C	0.620475	0.393957	0.140956
71	C	0.621202	0.380054	0
72	S	0.606466	0.379496	0.801018
73	S	0.577134	0.425232	0.886311
74	S	0.541469	0.447978	0.866093
75	S	0.508616	0.487978	0.683925
76	S	0.451017	0.554501	0.278756
77	S	0.417451	0.57935	0.249544
78	S	0.396087	0.607901	0.998354
79	H	0.362036	0.630824	0.210757
80	H	0.380884	0.616773	0.473672
81	H	0.41258	0.613114	0.630292
82	H	0.434708	0.591674	0.742597
83	H	0.441196	0.558195	0.78009
84	H	0.461855	0.533863	0.721507
85	H	0.484808	0.516068	0.791695
86	H	0.506665	0.485464	0.352759
87	H	0.527254	0.465464	0.422005
88	H	0.548058	0.441228	0.363699
89	H	0.553277	0.406582	0.415336
90	H	0.577048	0.386746	0.52358
91	H	0.604494	0.416223	0.172021
92	H	0.628828	0.396576	0.278922
93	C	0.379986	0.759988	0
94	C	0.376595	0.750816	0.180163
95	C	0.384182	0.768608	0.321639
96	C	0.393187	0.790647	0.244152
97	C	0.402189	0.812244	0.348813
98	C	0.397879	0.814747	0.538136
99	C	0.409547	0.838363	0.599327
100	C	0.422661	0.853657	0.456131
101	C	0.436708	0.878663	0.472294
102	C	0.44484	0.891282	0.639404
103	C	0.458139	0.915708	0.607253
104	C	0.45999	0.921473	0.415774
105	C	0.472077	0.944211	0.328479
106	N	0.473091	0.947306	0.142076
107	C	0.485767	0.970644	0.098092
108	C	0.490443	0.980277	0.914391
109	C	0.503557	0.004255	0.89001
110	C	0.512254	0.019122	0.046357
111	C	0.507572	0.009488	0.230069
112	C	0.494477	0.985509	0.254451
113	S	0.48631	0.969342	0.460537
114	N	0.524946	0.042461	0.002351
115	C	0.526039	0.045543	0.815915
116	C	0.538281	0.068271	0.728556
117	C	0.541212	0.073965	0.536646
118	C	0.554457	0.098398	0.504591
119	C	0.561365	0.11107	0.672131
120	C	0.575068	0.136077	0.688619
121	C	0.589923	0.151279	0.552322
122	C	0.600736	0.17494	0.611762
123	C	0.593953	0.177589	0.792626
124	C	0.601296	0.19891	0.898207
125	C	0.595033	0.201527	0.081852
126	C	0.605594	0.225203	0.140956
127	C	0.61953	0.239773	0
128	S	0.620147	0.225688	0.801018
129	S	0.574411	0.150989	0.886311
130	S	0.551748	0.092899	0.866093
131	S	0.511777	0.020416	0.683925
132	S	0.445312	0.896927	0.278756
133	S	0.420533	0.838827	0.249544
134	S	0.391994	0.789162	0.998354
135	H	0.369147	0.732499	0.210757
136	H	0.383159	0.76522	0.473672
137	H	0.386702	0.800357	0.630292
138	H	0.408109	0.843697	0.742597
139	H	0.441648	0.883491	0.78009
140	H	0.465959	0.928252	0.721507
141	H	0.483709	0.968781	0.791695
142	H	0.514305	0.020981	0.352759
143	H	0.534274	0.061358	0.422005
144	H	0.55849	0.106169	0.363699
145	H	0.593203	0.145863	0.415336
146	H	0.612995	0.189237	0.52358
147	H	0.583335	0.187146	0.172021
148	H	0.602936	0.230893	0.278922
149	C	0.240854	0.619706	0
150	C	0.250062	0.625473	0.180163
151	C	0.232195	0.61529	0.321639
152	C	0.210065	0.602284	0.244152
153	C	0.188378	0.589717	0.348813
154	C	0.185885	0.582941	0.538136
155	C	0.162163	0.571011	0.599327
156	C	0.146778	0.568806	0.456131
157	C	0.121653	0.557855	0.472294
158	C	0.108971	0.553366	0.639404
159	C	0.084431	0.54225	0.607253
160	C	0.078643	0.538346	0.415774
161	C	0.055799	0.527706	0.328479
162	N	0.052693	0.525632	0.142076
163	C	0.029246	0.51498	0.098092
164	C	0.019569	0.510031	0.914391
165	C	0.995479	0.499177	0.89001
166	C	0.980541	0.49301	0.046357
167	C	0.990217	0.497953	0.230069
168	C	0.014309	0.508827	0.254451
169	S	0.030549	0.516817	0.460537
170	N	0.957092	0.482373	0.002351
171	C	0.953998	0.480389	0.815915
172	C	0.931164	0.469914	0.728556
173	C	0.925444	0.467154	0.536646
174	C	0.900897	0.455978	0.504591
175	C	0.888165	0.450218	0.672131
176	C	0.863041	0.438925	0.688619
177	C	0.847741	0.438542	0.552322
178	C	0.823978	0.425718	0.611762
179	C	0.821349	0.416341	0.792626
180	C	0.799945	0.4024	0.898207
181	C	0.797346	0.39357	0.081852
182	C	0.773569	0.380481	0.140956
183	C	0.758907	0.379814	0
184	S	0.773025	0.394456	0.801018
185	S	0.848093	0.423419	0.886311
186	S	0.906421	0.458764	0.866093
187	S	0.979245	0.491247	0.683925
188	S	0.103309	0.548212	0.278756
189	S	0.161654	0.581463	0.249544
190	S	0.211558	0.602577	0.998354
191	H	0.268455	0.636318	0.210757
192	H	0.235595	0.617647	0.473672
193	H	0.200356	0.586169	0.630292
194	H	0.156821	0.564269	0.742597
195	H	0.116794	0.557955	0.78009
196	H	0.071823	0.537525	0.721507
197	H	0.031121	0.514791	0.791695
198	H	0.978668	0.493195	0.352759
199	H	0.93811	0.472819	0.422005
200	H	0.89309	0.452244	0.363699
201	H	0.853158	0.447196	0.415336
202	H	0.809596	0.423657	0.52358
203	H	0.811809	0.396271	0.172021
204	H	0.767874	0.372171	0.278922
