data_C87H51N9O6S6_2023-05-11_00:55:28
#******************************************
#
# CIF file created by Zeo++
# Zeo++ is an open source package to
# analyze microporous materials
#
#*******************************************

_cell_length_a		47.3612   
_cell_length_b		47.6597   
_cell_length_c		7   
_cell_angle_alpha		90   
_cell_angle_beta		90   
_cell_angle_gamma		119.726   

_symmetry_space_group_name_H-M		'P1'
_symmetry_Int_Tables_number		1
_symmetry_cell_setting		Monoclinic

loop_
_symmetry_equiv_pos_as_xyz
'+x,+y,+z'

loop_
_atom_site_label
_atom_site_type_symbol
_atom_site_fract_x
_atom_site_fract_y
_atom_site_fract_z
1	C	0.366056	0.673504	0.999995
2	O	0.394745	0.678531	0.999991
3	C	0.340136	0.639907	0.999998
4	C	0.345185	0.615142	0
5	N	0.377299	0.620933	0
6	C	0.306958	0.633943	3e-06
7	O	0.283663	0.604986	5e-06
8	C	0.298974	0.659781	6e-06
9	C	0.268443	0.653546	5e-06
10	N	0.243222	0.620599	0
11	C	0.326142	0.69311	4e-06
12	O	0.319797	0.715454	7e-06
13	C	0.359854	0.700571	0.999999
14	C	0.383803	0.730976	0.999998
15	N	0.378974	0.757966	0
16	H	0.325342	0.591035	1e-06
17	H	0.261993	0.672053	8e-06
18	H	0.408039	0.735318	0.999997
19	C	0.633944	0.326496	0.999995
20	O	0.605255	0.321469	0.999991
21	C	0.659864	0.360093	0.999998
22	C	0.654815	0.384858	0
23	N	0.622701	0.379067	0
24	C	0.693042	0.366057	3e-06
25	O	0.716337	0.395014	5e-06
26	C	0.701026	0.340219	6e-06
27	C	0.731557	0.346454	5e-06
28	N	0.756778	0.379401	0
29	C	0.673858	0.30689	4e-06
30	O	0.680203	0.284546	7e-06
31	C	0.640146	0.299429	0.999999
32	C	0.616197	0.269024	0.999998
33	N	0.621026	0.242034	0
34	H	0.674658	0.408965	1e-06
35	H	0.738007	0.327947	8e-06
36	H	0.591961	0.264682	0.999997
37	C	0.396911	0.601604	0
38	C	0.416553	0.588026	0.006716
39	C	0.419658	0.578837	0.197318
40	C	0.438438	0.564157	0.250011
41	C	0.456934	0.55644	0.141089
42	C	0.471452	0.541645	0.256882
43	C	0.493427	0.530221	0.19254
44	C	0.518251	0.547909	0.062032
45	C	0.538868	0.536454	0.002489
46	C	0.534326	0.507262	0.074495
47	C	0.554932	0.49336	0.019683
48	C	0.580602	0.506336	0.899907
49	C	0.595119	0.48465	0.881943
50	C	0.573643	0.457016	0.011038
51	C	0.57908	0.430381	0.03616
52	C	0.560108	0.404287	0.152976
53	S	0.572563	0.376088	0.154161
54	C	0.603089	0.398396	0
55	C	0.604287	0.42669	0.946844
56	C	0.550973	0.462703	0.087455
57	N	0.510296	0.489616	0.201046
58	C	0.490662	0.501325	0.256212
59	C	0.461621	0.540361	0.438644
60	C	0.439595	0.554579	0.453606
61	C	0.401908	0.586131	0.32477
62	S	0.382043	0.603667	0.216009
63	H	0.42809	0.584806	0.881597
64	H	0.460728	0.560102	0.988989
65	H	0.522039	0.570829	0.006581
66	H	0.558071	0.550586	0.90136
67	H	0.590273	0.528998	0.824578
68	H	0.593882	0.476859	0.733533
69	H	0.620419	0.497236	0.930648
70	H	0.53938	0.40005	0.238901
71	H	0.622308	0.443813	0.849049
72	H	0.531957	0.447427	0.18604
73	H	0.471757	0.485892	0.356414
74	H	0.4685	0.531046	0.559925
75	H	0.450148	0.575465	0.549609
76	H	0.415584	0.536398	0.505529
77	H	0.399299	0.58223	0.477437
78	C	0.398264	0.796625	0
79	C	0.411782	0.829594	0.006716
80	C	0.420987	0.84181	0.197318
81	C	0.435616	0.875021	0.250011
82	C	0.443259	0.901024	0.141089
83	C	0.458026	0.930126	0.256882
84	C	0.46937	0.963264	0.19254
85	C	0.451482	0.970275	0.062032
86	C	0.462865	0.002099	0.002489
87	C	0.492185	0.026629	0.074495
88	C	0.506023	0.060875	0.019683
89	C	0.49286	0.07341	0.899907
90	C	0.514543	0.109363	0.881943
91	C	0.542393	0.115562	0.011038
92	C	0.569093	0.147439	0.03616
93	C	0.595383	0.154587	0.152976
94	S	0.623615	0.194975	0.154161
95	C	0.601059	0.203041	0
96	C	0.572658	0.176091	0.946844
97	C	0.536811	0.087441	0.087455
98	N	0.510026	0.020364	0.201046
99	C	0.498384	0.989262	0.256212
100	C	0.459368	0.92166	0.438644
101	C	0.445222	0.885692	0.453606
102	C	0.413765	0.816965	0.32477
103	S	0.396275	0.779839	0.216009
104	H	0.41495	0.84423	0.881597
105	H	0.439563	0.901143	0.988989
106	H	0.42846	0.951235	0.006581
107	H	0.448577	0.007075	0.90136
108	H	0.470064	0.060456	0.824578
109	H	0.522369	0.115885	0.733533
110	H	0.501774	0.121919	0.930648
111	H	0.59975	0.13826	0.238901
112	H	0.555376	0.17692	0.849049
113	H	0.552246	0.083787	0.18604
114	H	0.513975	0.985875	0.356414
115	H	0.468679	0.937741	0.559925
116	H	0.424203	0.875379	0.549609
117	H	0.463599	0.879978	0.505529
118	H	0.417693	0.818259	0.477437
119	C	0.20432	0.60127	0
120	C	0.17116	0.581879	0.006716
121	C	0.15885	0.578853	0.197318
122	C	0.125441	0.560322	0.250011
123	C	0.099303	0.542035	0.141089
124	C	0.070017	0.527728	0.256882
125	C	0.036699	0.506014	0.19254
126	C	0.029762	0.481315	0.062032
127	C	0.997762	0.460946	0.002489
128	C	0.972983	0.465608	0.074495
129	C	0.938541	0.445264	0.019683
130	C	0.926033	0.419753	0.899907
131	C	0.889833	0.405486	0.881943
132	C	0.883459	0.426921	0.011038
133	C	0.851322	0.421679	0.03616
134	C	0.844004	0.440625	0.152976
135	S	0.803317	0.428436	0.154161
136	C	0.795347	0.398062	0
137	C	0.822549	0.396719	0.946844
138	C	0.911711	0.449355	0.087455
139	N	0.979173	0.48952	0.201046
140	C	0.01045	0.508913	0.256212
141	C	0.078506	0.537478	0.438644
142	C	0.114679	0.559228	0.453606
143	C	0.183823	0.596403	0.32477
144	S	0.221177	0.615993	0.216009
145	H	0.156454	0.570463	0.881597
146	H	0.099204	0.538255	0.988989
147	H	0.048996	0.477435	0.006581
148	H	0.992847	0.441839	0.90136
149	H	0.939158	0.410045	0.824578
150	H	0.883245	0.406755	0.733533
151	H	0.877303	0.380344	0.930648
152	H	0.860366	0.46119	0.238901
153	H	0.821812	0.378766	0.849049
154	H	0.915292	0.468285	0.18604
155	H	0.013763	0.527732	0.356414
156	H	0.062316	0.530712	0.559925
157	H	0.125144	0.548655	0.549609
158	H	0.120312	0.583123	0.505529
159	H	0.182502	0.59901	0.477437
