data_C102H51N9O6S18_2023-05-15_17:00:09
#******************************************
#
# CIF file created by Zeo++
# Zeo++ is an open source package to
# analyze microporous materials
#
#*******************************************

_cell_length_a		60.1211   
_cell_length_b		60.4195   
_cell_length_c		7   
_cell_angle_alpha		90   
_cell_angle_beta		90   
_cell_angle_gamma		119.784   

_symmetry_space_group_name_H-M		'P1'
_symmetry_Int_Tables_number		1
_symmetry_cell_setting		Monoclinic

loop_
_symmetry_equiv_pos_as_xyz
'+x,+y,+z'

loop_
_atom_site_label
_atom_site_type_symbol
_atom_site_fract_x
_atom_site_fract_y
_atom_site_fract_z
1	C	0.359118	0.672063	0.999995
2	O	0.381722	0.676031	0.999991
3	C	0.338668	0.645546	0.999998
4	C	0.342622	0.626	0
5	N	0.367926	0.630571	0
6	C	0.312526	0.640839	3e-06
7	O	0.294148	0.617984	5e-06
8	C	0.30626	0.661232	6e-06
9	C	0.282203	0.656311	5e-06
10	N	0.262305	0.630307	0
11	C	0.327693	0.687538	4e-06
12	O	0.322715	0.705173	7e-06
13	C	0.354257	0.693426	0.999999
14	C	0.373151	0.717424	0.999998
15	N	0.369372	0.738727	0
16	H	0.326968	0.606973	1e-06
17	H	0.277139	0.670918	8e-06
18	H	0.392247	0.720851	0.999997
19	C	0.640882	0.327937	0.999995
20	O	0.618278	0.323969	0.999991
21	C	0.661332	0.354454	0.999998
22	C	0.657378	0.374	0
23	N	0.632074	0.369429	0
24	C	0.687474	0.359161	3e-06
25	O	0.705852	0.382016	5e-06
26	C	0.69374	0.338768	6e-06
27	C	0.717797	0.343689	5e-06
28	N	0.737695	0.369693	0
29	C	0.672307	0.312462	4e-06
30	O	0.677285	0.294827	7e-06
31	C	0.645743	0.306574	0.999999
32	C	0.626849	0.282576	0.999998
33	N	0.630628	0.261273	0
34	H	0.673032	0.393027	1e-06
35	H	0.722861	0.329082	8e-06
36	H	0.607753	0.279149	0.999997
37	C	0.616642	0.384685	0
38	C	0.607153	0.394122	0.864457
39	C	0.594682	0.406458	0.951078
40	C	0.595113	0.40598	0.149268
41	C	0.584416	0.416545	0.282937
42	C	0.584861	0.416081	0.480314
43	C	0.572372	0.428422	0.566241
44	C	0.56247	0.438232	0.434025
45	C	0.548738	0.451809	0.474755
46	C	0.543008	0.457467	0.653633
47	C	0.529248	0.471072	0.645699
48	C	0.524772	0.475505	0.460774
49	C	0.510156	0.489957	0.40553
50	C	0.50543	0.494635	0.221855
51	N	0.492233	0.50768	0.232288
52	C	0.4883	0.511562	0.420221
53	C	0.474967	0.524739	0.477118
54	C	0.470202	0.529461	0.660993
55	C	0.456437	0.54306	0.666583
56	C	0.450856	0.54856	0.486865
57	C	0.43715	0.562094	0.443654
58	C	0.427095	0.571967	0.574059
59	C	0.414683	0.58424	0.485869
60	C	0.415337	0.583664	0.28859
61	C	0.404765	0.594138	0.153027
62	C	0.405408	0.593555	0.954931
63	C	0.393006	0.605823	0.866135
64	C	0.383358	0.615315	0
65	S	0.388872	0.609811	0.227009
66	S	0.431166	0.568078	0.215185
67	S	0.462641	0.536905	0.314207
68	C	0.499385	0.5006	0.530487
69	S	0.537085	0.463337	0.299798
70	S	0.568689	0.43211	0.206686
71	S	0.610899	0.39032	0.226029
72	H	0.608886	0.392443	0.711857
73	H	0.585819	0.415261	0.869504
74	H	0.593715	0.407313	0.56232
75	H	0.570888	0.429871	0.719374
76	H	0.548356	0.452175	0.786453
77	H	0.52309	0.477156	0.770564
78	H	0.510233	0.489892	0.084666
79	H	0.48616	0.513688	0.119198
80	H	0.47624	0.523505	0.787294
81	H	0.450989	0.548453	0.798514
82	H	0.428414	0.57061	0.727461
83	H	0.405729	0.593043	0.566278
84	H	0.41437	0.584727	0.874887
85	H	0.391429	0.607419	0.713247
86	H	0.499665	0.500318	0.684893
87	C	0.614864	0.230498	0
88	C	0.605442	0.211681	0.864457
89	C	0.593126	0.187015	0.951078
90	C	0.593604	0.18792	0.149268
91	C	0.583055	0.166778	0.282937
92	C	0.583519	0.167682	0.480314
93	C	0.571197	0.142995	0.566241
94	C	0.561403	0.123396	0.434025
95	C	0.547848	0.096242	0.474755
96	C	0.542198	0.084919	0.653633
97	C	0.528615	0.057711	0.645699
98	C	0.52419	0.048853	0.460774
99	C	0.509761	0.019952	0.40553
100	C	0.50509	0.010601	0.221855
101	N	0.492066	0.984509	0.232288
102	C	0.48819	0.97674	0.420221
103	C	0.475034	0.950381	0.477118
104	C	0.47032	0.940948	0.660993
105	C	0.456742	0.91374	0.666583
106	C	0.451252	0.902724	0.486865
107	C	0.437739	0.875639	0.443654
108	C	0.427882	0.855826	0.574059
109	C	0.415628	0.831281	0.485869
110	C	0.416204	0.832505	0.28859
111	C	0.405746	0.81158	0.153027
112	C	0.406328	0.812797	0.954931
113	C	0.39408	0.788269	0.866135
114	C	0.384603	0.769239	0
115	S	0.390099	0.780194	0.227009
116	S	0.431765	0.86374	0.215185
117	S	0.462888	0.926029	0.314207
118	C	0.499134	0.99866	0.530487
119	S	0.536338	0.073195	0.299798
120	S	0.567515	0.135666	0.206686
121	S	0.609239	0.219185	0.226029
122	H	0.607118	0.215073	0.711857
123	H	0.584337	0.16945	0.869504
124	H	0.592273	0.185204	0.56232
125	H	0.569751	0.140079	0.719374
126	H	0.547483	0.095499	0.786453
127	H	0.522541	0.045539	0.770564
128	H	0.509826	0.020094	0.084666
129	H	0.486068	0.972499	0.119198
130	H	0.476266	0.952874	0.787294
131	H	0.451358	0.902962	0.798514
132	H	0.429237	0.858487	0.727461
133	H	0.40684	0.813627	0.566278
134	H	0.415141	0.830485	0.874887
135	H	0.392486	0.785114	0.713247
136	H	0.499416	0.999219	0.684893
137	C	0.768096	0.384421	0
138	C	0.787007	0.393802	0.864457
139	C	0.811795	0.406132	0.951078
140	C	0.810885	0.405705	0.149268
141	C	0.832131	0.416281	0.282937
142	C	0.831223	0.415842	0.480314
143	C	0.856033	0.428188	0.566241
144	C	0.875729	0.437977	0.434025
145	C	0.903017	0.451553	0.474755
146	C	0.914396	0.457218	0.653633
147	C	0.941739	0.470822	0.645699
148	C	0.950641	0.475247	0.460774
149	C	0.979686	0.489696	0.40553
150	C	0.989082	0.494368	0.221855
151	N	0.015303	0.507415	0.232288
152	C	0.023112	0.511303	0.420221
153	C	0.049601	0.524484	0.477118
154	C	0.059081	0.529196	0.660993
155	C	0.086423	0.542804	0.666583
156	C	0.097494	0.548321	0.486865
157	C	0.124714	0.561872	0.443654
158	C	0.144625	0.571812	0.574059
159	C	0.169291	0.584083	0.485869
160	C	0.168061	0.583436	0.28859
161	C	0.18909	0.593887	0.153027
162	C	0.187867	0.593252	0.954931
163	C	0.212517	0.605513	0.866135
164	C	0.231641	0.615051	0
165	S	0.220631	0.609599	0.227009
166	S	0.136671	0.567787	0.215185
167	S	0.074073	0.536671	0.314207
168	C	0.001083	0.500345	0.530487
169	S	0.926179	0.463073	0.299798
170	S	0.863397	0.431829	0.206686
171	S	0.779464	0.3901	0.226029
172	H	0.783598	0.392089	0.711857
173	H	0.829446	0.414893	0.869504
174	H	0.813614	0.407088	0.56232
175	H	0.858963	0.429655	0.719374
176	H	0.903764	0.451931	0.786453
177	H	0.953971	0.476909	0.770564
178	H	0.979543	0.489619	0.084666
179	H	0.027374	0.513418	0.119198
180	H	0.047096	0.523226	0.787294
181	H	0.097255	0.548189	0.798514
182	H	0.141951	0.570508	0.727461
183	H	0.187033	0.592935	0.566278
184	H	0.170091	0.584392	0.874887
185	H	0.215687	0.607071	0.713247
186	H	0.000521	0.500068	0.684893
