data_C72H36N6O6S6_2023-05-11_18:14:42
#******************************************
#
# CIF file created by Zeo++
# Zeo++ is an open source package to
# analyze microporous materials
#
#*******************************************

_cell_length_a		39.8303   
_cell_length_b		40.1288   
_cell_length_c		7   
_cell_angle_alpha		90   
_cell_angle_beta		90   
_cell_angle_gamma		119.675   

_symmetry_space_group_name_H-M		'P1'
_symmetry_Int_Tables_number		1
_symmetry_cell_setting		Monoclinic

loop_
_symmetry_equiv_pos_as_xyz
'+x,+y,+z'

loop_
_atom_site_label
_atom_site_type_symbol
_atom_site_fract_x
_atom_site_fract_y
_atom_site_fract_z
1	C	0.372235	0.674783	0.999995
2	O	0.406342	0.680751	0.999991
3	C	0.341456	0.634901	0.999998
4	C	0.347489	0.605504	0
5	N	0.385668	0.612379	0
6	C	0.302012	0.627822	3e-06
7	O	0.274348	0.593448	5e-06
8	C	0.292486	0.658493	6e-06
9	C	0.25619	0.651092	5e-06
10	N	0.226241	0.611982	0
11	C	0.32475	0.698057	4e-06
12	O	0.317177	0.72458	7e-06
13	C	0.364826	0.706913	0.999999
14	C	0.393266	0.743006	0.999998
15	N	0.387491	0.775045	0
16	H	0.323924	0.576887	1e-06
17	H	0.248497	0.673061	8e-06
18	H	0.422079	0.74816	0.999997
19	C	0.627765	0.325217	0.999995
20	O	0.593658	0.319249	0.999991
21	C	0.658544	0.365099	0.999998
22	C	0.652511	0.394496	0
23	N	0.614332	0.387621	0
24	C	0.697988	0.372178	3e-06
25	O	0.725652	0.406552	5e-06
26	C	0.707514	0.341507	6e-06
27	C	0.74381	0.348908	5e-06
28	N	0.773759	0.388018	0
29	C	0.67525	0.301943	4e-06
30	O	0.682823	0.27542	7e-06
31	C	0.635174	0.293087	0.999999
32	C	0.606734	0.256994	0.999998
33	N	0.612509	0.224955	0
34	H	0.676076	0.423113	1e-06
35	H	0.751503	0.326939	8e-06
36	H	0.577921	0.25184	0.999997
37	C	0.409012	0.589434	0
38	C	0.408046	0.590384	0.195189
39	S	0.430815	0.568006	0.293607
40	C	0.442297	0.556718	0.073571
41	C	0.463917	0.535468	0.05739
42	C	0.472847	0.52669	0.876949
43	C	0.493182	0.506703	0.857057
44	C	0.505362	0.49473	0.017622
45	C	0.525855	0.474587	0.000318
46	C	0.538256	0.462397	0.160548
47	C	0.559784	0.441237	0.13521
48	C	0.570585	0.430623	0.967144
49	C	0.590988	0.410566	0
50	C	0.595792	0.405842	0.189666
51	S	0.575398	0.425885	0.32936
52	C	0.52933	0.471172	0.340943
53	C	0.508989	0.491165	0.360613
54	C	0.496807	0.503139	0.20007
55	C	0.476314	0.523283	0.217585
56	C	0.428381	0.570395	0.929128
57	H	0.395227	0.602985	0.285169
58	H	0.464208	0.535181	0.746808
59	H	0.499383	0.500609	0.713965
60	H	0.532017	0.468531	0.857239
61	H	0.564159	0.436941	0.825956
62	H	0.610146	0.391731	0.253666
63	H	0.537909	0.462739	0.471558
64	H	0.502784	0.497264	0.503718
65	H	0.470216	0.529276	0.361022
66	H	0.431906	0.56693	0.778444
67	C	0.41038	0.820935	0
68	C	0.409432	0.819034	0.195189
69	S	0.431756	0.863793	0.293607
70	C	0.443017	0.886367	0.073571
71	C	0.464215	0.928867	0.05739
72	C	0.472972	0.946422	0.876949
73	C	0.492911	0.986397	0.857057
74	C	0.504854	0.010342	0.017622
75	C	0.524949	0.050628	0.000318
76	C	0.53711	0.075008	0.160548
77	C	0.558219	0.117328	0.13521
78	C	0.568807	0.138559	0.967144
79	C	0.588815	0.178669	0
80	C	0.593528	0.188116	0.189666
81	S	0.573533	0.148026	0.32936
82	C	0.528356	0.057459	0.340943
83	C	0.508411	0.017473	0.360613
84	C	0.496466	0.993524	0.20007
85	C	0.476371	0.953238	0.217585
86	C	0.429372	0.859011	0.929128
87	H	0.396862	0.793834	0.285169
88	H	0.464501	0.92944	0.746808
89	H	0.498989	0.998586	0.713965
90	H	0.530991	0.062741	0.857239
91	H	0.562504	0.125924	0.825956
92	H	0.607604	0.216335	0.253666
93	H	0.536768	0.074324	0.471558
94	H	0.502327	0.005275	0.503718
95	H	0.470392	0.941251	0.361022
96	H	0.43283	0.865941	0.778444
97	C	0.180007	0.589037	0
98	C	0.181922	0.589987	0.195189
99	S	0.136828	0.567606	0.293607
100	C	0.114085	0.556321	0.073571
101	C	0.071268	0.53507	0.05739
102	C	0.053581	0.526293	0.876949
103	C	0.013307	0.506305	0.857057
104	C	0.989183	0.494333	0.017622
105	C	0.948596	0.47419	0.000318
106	C	0.924034	0.462	0.160548
107	C	0.881397	0.44084	0.13521
108	C	0.860008	0.430224	0.967144
109	C	0.819597	0.41017	0
110	C	0.81008	0.405448	0.189666
111	S	0.850469	0.425494	0.32936
112	C	0.941714	0.470775	0.340943
113	C	0.981999	0.490768	0.360613
114	C	0.006127	0.502742	0.20007
115	C	0.046715	0.522885	0.217585
116	C	0.141647	0.569999	0.929128
117	H	0.207312	0.602587	0.285169
118	H	0.070691	0.534784	0.746808
119	H	0.001028	0.50021	0.713965
120	H	0.936393	0.468134	0.857239
121	H	0.872737	0.43654	0.825956
122	H	0.781649	0.391339	0.253666
123	H	0.924723	0.462342	0.471558
124	H	0.994289	0.496867	0.503718
125	H	0.058792	0.528879	0.361022
126	H	0.134664	0.566534	0.778444
