data_C108H54N6O6S18_2023-05-12_20:08:00
#******************************************
#
# CIF file created by Zeo++
# Zeo++ is an open source package to
# analyze microporous materials
#
#*******************************************

_cell_length_a		59.3063   
_cell_length_b		59.6047   
_cell_length_c		7   
_cell_angle_alpha		90   
_cell_angle_beta		90   
_cell_angle_gamma		119.781   

_symmetry_space_group_name_H-M		'P1'
_symmetry_Int_Tables_number		1
_symmetry_cell_setting		Monoclinic

loop_
_symmetry_equiv_pos_as_xyz
'+x,+y,+z'

loop_
_atom_site_label
_atom_site_type_symbol
_atom_site_fract_x
_atom_site_fract_y
_atom_site_fract_z
1	C	0.359471	0.672136	0.999995
2	O	0.382387	0.676159	0.999991
3	C	0.338743	0.645258	0.999998
4	C	0.342752	0.625445	0
5	N	0.368404	0.630078	0
6	C	0.312242	0.640487	3e-06
7	O	0.293613	0.61732	5e-06
8	C	0.305889	0.661158	6e-06
9	C	0.281501	0.65617	5e-06
10	N	0.261331	0.629811	0
11	C	0.327614	0.687822	4e-06
12	O	0.322566	0.705698	7e-06
13	C	0.354542	0.693791	0.999999
14	C	0.373695	0.718116	0.999998
15	N	0.369862	0.73971	0
16	H	0.326885	0.606158	1e-06
17	H	0.276367	0.670976	8e-06
18	H	0.393053	0.72159	0.999997
19	C	0.640529	0.327864	0.999995
20	O	0.617613	0.323841	0.999991
21	C	0.661257	0.354742	0.999998
22	C	0.657248	0.374555	0
23	N	0.631596	0.369922	0
24	C	0.687758	0.359513	3e-06
25	O	0.706387	0.38268	5e-06
26	C	0.694111	0.338842	6e-06
27	C	0.718499	0.34383	5e-06
28	N	0.738669	0.370189	0
29	C	0.672386	0.312178	4e-06
30	O	0.677434	0.294302	7e-06
31	C	0.645458	0.306209	0.999999
32	C	0.626305	0.281884	0.999998
33	N	0.630138	0.26029	0
34	H	0.673115	0.393842	1e-06
35	H	0.723633	0.329024	8e-06
36	H	0.606947	0.27841	0.999997
37	C	0.615952	0.385386	0
38	C	0.601583	0.397443	0.97461
39	C	0.599665	0.402339	0.776989
40	C	0.58461	0.415887	0.696154
41	C	0.582817	0.420566	0.505763
42	C	0.567909	0.433113	0.476595
43	C	0.558741	0.4378	0.645157
44	C	0.542933	0.449981	0.664227
45	C	0.52815	0.452637	0.522605
46	C	0.514954	0.465771	0.586529
47	C	0.51978	0.472894	0.776337
48	C	0.510046	0.486872	0.891695
49	C	0.509727	0.508457	0.81561
50	C	0.500303	0.521903	0.922661
51	C	0.490817	0.514015	0.108267
52	C	0.481076	0.527988	0.223583
53	C	0.48596	0.535182	0.413227
54	C	0.472731	0.548283	0.477166
55	C	0.457861	0.550838	0.335733
56	C	0.441995	0.562957	0.354884
57	C	0.43297	0.567785	0.523584
58	C	0.417946	0.580212	0.494453
59	C	0.415923	0.584658	0.303943
60	C	0.400688	0.598021	0.223107
61	C	0.387663	0.606723	0.33762
62	S	0.373043	0.620338	0.207155
63	C	0.384048	0.614614	0
64	C	0.398528	0.602673	0.025358
65	S	0.432054	0.573884	0.163304
66	S	0.460197	0.536971	0.127098
67	C	0.491136	0.492432	0.184363
68	C	0.500561	0.478986	0.077312
69	S	0.540571	0.463806	0.872984
70	S	0.568406	0.426596	0.836644
71	C	0.612749	0.393691	0.662597
72	S	0.627135	0.379836	0.793021
73	H	0.592912	0.402497	0.090974
74	H	0.591612	0.415435	0.390823
75	H	0.564328	0.438544	0.33698
76	H	0.526572	0.445367	0.378561
77	H	0.502319	0.469586	0.497132
78	H	0.517099	0.515269	0.672475
79	H	0.500713	0.538773	0.859373
80	H	0.498657	0.531438	0.50249
81	H	0.474343	0.555595	0.621104
82	H	0.436731	0.562539	0.663294
83	H	0.409237	0.585423	0.609505
84	H	0.3858	0.605926	0.491354
85	H	0.407112	0.597535	0.908887
86	H	0.483759	0.485619	0.327478
87	H	0.500145	0.462113	0.140601
88	H	0.614779	0.394656	0.508973
89	C	0.614159	0.229095	0
90	C	0.60213	0.202825	0.97461
91	C	0.597229	0.196047	0.776989
92	C	0.583708	0.167611	0.696154
93	C	0.579025	0.161173	0.505763
94	C	0.566507	0.13388	0.476595
95	C	0.561848	0.120112	0.645157
96	C	0.549702	0.09229	0.664227
97	C	0.547103	0.074969	0.522605
98	C	0.53399	0.048792	0.586529
99	C	0.526825	0.046491	0.776337
100	C	0.512851	0.02291	0.891695
101	C	0.491206	0.001104	0.81561
102	C	0.477764	0.978361	0.922661
103	C	0.485716	0.976797	0.108267
104	C	0.471746	0.953214	0.223583
105	C	0.46451	0.9509	0.413227
106	C	0.451431	0.924723	0.477166
107	C	0.448934	0.907416	0.335733
108	C	0.43685	0.879599	0.354884
109	C	0.432048	0.865831	0.523584
110	C	0.419652	0.838543	0.494453
111	C	0.415202	0.832108	0.303943
112	C	0.401869	0.803678	0.223107
113	C	0.393199	0.782084	0.33762
114	S	0.37961	0.754013	0.207155
115	C	0.385301	0.770638	0
116	C	0.397213	0.796903	0.025358
117	S	0.425936	0.85885	0.163304
118	S	0.46283	0.923541	0.127098
119	C	0.507359	0.998602	0.184363
120	C	0.520801	0.021345	0.077312
121	S	0.535848	0.076181	0.872984
122	S	0.573041	0.140862	0.836644
123	C	0.605843	0.217646	0.662597
124	S	0.619674	0.245723	0.793021
125	H	0.5971	0.189185	0.090974
126	H	0.584131	0.175012	0.390823
127	H	0.561077	0.124918	0.33698
128	H	0.554401	0.08064	0.378561
129	H	0.53022	0.032449	0.497132
130	H	0.484343	0.001641	0.672475
131	H	0.460845	0.961972	0.859373
132	H	0.468209	0.967233	0.50249
133	H	0.444091	0.919044	0.621104
134	H	0.437293	0.874789	0.663294
135	H	0.414464	0.824708	0.609505
136	H	0.394007	0.781028	0.491354
137	H	0.402327	0.81054	0.908887
138	H	0.514223	0.99806	0.327478
139	H	0.537723	0.03773	0.140601
140	H	0.604868	0.218701	0.508973
141	C	0.769486	0.385118	0
142	C	0.795884	0.399331	0.97461
143	C	0.802703	0.401214	0.776989
144	C	0.831279	0.416101	0.696154
145	C	0.837755	0.41786	0.505763
146	C	0.86518	0.432606	0.476595
147	C	0.879008	0.441688	0.645157
148	C	0.906962	0.457329	0.664227
149	C	0.924343	0.471993	0.522605
150	C	0.950652	0.485036	0.586529
151	C	0.952991	0.480214	0.776337
152	C	0.9767	0.489817	0.891695
153	C	0.998663	0.490038	0.81561
154	C	0.02153	0.499336	0.922661
155	C	0.023064	0.508788	0.108267
156	C	0.046774	0.518397	0.223583
157	C	0.049127	0.513517	0.413227
158	C	0.075435	0.526594	0.477166
159	C	0.092802	0.541345	0.335733
160	C	0.120751	0.557044	0.354884
161	C	0.134579	0.565983	0.523584
162	C	0.161998	0.580844	0.494453
163	C	0.168472	0.582834	0.303943
164	C	0.19704	0.5979	0.223107
165	C	0.218734	0.610793	0.33762
166	S	0.246944	0.625248	0.207155
167	C	0.230247	0.614347	0
168	C	0.203856	0.600024	0.025358
169	S	0.141607	0.566865	0.163304
170	S	0.07657	0.539087	0.127098
171	C	0.001102	0.508566	0.184363
172	C	0.978234	0.499268	0.077312
173	S	0.923177	0.459612	0.872984
174	S	0.85815	0.432141	0.836644
175	C	0.781004	0.388262	0.662597
176	S	0.752787	0.37404	0.793021
177	H	0.809584	0.407917	0.090974
178	H	0.823854	0.409152	0.390823
179	H	0.874192	0.436138	0.33698
180	H	0.918624	0.473592	0.378561
181	H	0.967058	0.497564	0.497132
182	H	0.998155	0.482689	0.672475
183	H	0.038039	0.498855	0.859373
184	H	0.032731	0.500928	0.50249
185	H	0.081162	0.52496	0.621104
186	H	0.125573	0.562272	0.663294
187	H	0.175896	0.589468	0.609505
188	H	0.219789	0.612646	0.491354
189	H	0.190158	0.591524	0.908887
190	H	0.001614	0.51592	0.327478
191	H	0.961729	0.499755	0.140601
192	H	0.77995	0.386242	0.508973
