data_C114H54N6O6S12_2023-05-15_05:47:36
#******************************************
#
# CIF file created by Zeo++
# Zeo++ is an open source package to
# analyze microporous materials
#
#*******************************************

_cell_length_a		50.7923   
_cell_length_b		51.0908   
_cell_length_c		7   
_cell_angle_alpha		90   
_cell_angle_beta		90   
_cell_angle_gamma		119.745   

_symmetry_space_group_name_H-M		'P1'
_symmetry_Int_Tables_number		1
_symmetry_cell_setting		Monoclinic

loop_
_symmetry_equiv_pos_as_xyz
'+x,+y,+z'

loop_
_atom_site_label
_atom_site_type_symbol
_atom_site_fract_x
_atom_site_fract_y
_atom_site_fract_z
1	C	0.363848	0.673046	0.999995
2	O	0.390601	0.677736	0.999991
3	C	0.339668	0.641699	0.999998
4	C	0.344367	0.618594	0
5	N	0.374313	0.623997	0
6	C	0.308729	0.636135	3e-06
7	O	0.286997	0.609117	5e-06
8	C	0.301293	0.660243	6e-06
9	C	0.272822	0.654425	5e-06
10	N	0.249293	0.623685	0
11	C	0.326637	0.691339	4e-06
12	O	0.320728	0.712186	7e-06
13	C	0.358074	0.6983	0.999999
14	C	0.380416	0.726668	0.999998
15	N	0.375923	0.751851	0
16	H	0.325856	0.596101	1e-06
17	H	0.266814	0.671692	8e-06
18	H	0.403017	0.730719	0.999997
19	C	0.636152	0.326954	0.999995
20	O	0.609399	0.322264	0.999991
21	C	0.660332	0.358301	0.999998
22	C	0.655633	0.381406	0
23	N	0.625687	0.376003	0
24	C	0.691271	0.363865	3e-06
25	O	0.713003	0.390883	5e-06
26	C	0.698707	0.339757	6e-06
27	C	0.727178	0.345575	5e-06
28	N	0.750707	0.376315	0
29	C	0.673363	0.308661	4e-06
30	O	0.679272	0.287814	7e-06
31	C	0.641926	0.3017	0.999999
32	C	0.619584	0.273332	0.999998
33	N	0.624077	0.248149	0
34	H	0.674144	0.403899	1e-06
35	H	0.733186	0.328308	8e-06
36	H	0.596983	0.269281	0.999997
37	C	0.392594	0.605962	0
38	C	0.3751	0.606552	0.146653
39	S	0.368562	0.579488	0.313107
40	C	0.38919	0.566821	0.188653
41	C	0.392804	0.542168	0.258474
42	C	0.373647	0.518848	0.378313
43	C	0.383947	0.497926	0.413665
44	C	0.411026	0.506039	0.322775
45	C	0.428876	0.490634	0.32357
46	C	0.448633	0.496311	0.477633
47	C	0.466807	0.482916	0.488617
48	C	0.486345	0.488984	0.644025
49	C	0.504571	0.475851	0.655427
50	C	0.503452	0.456551	0.511011
51	C	0.484099	0.449797	0.351122
52	C	0.482495	0.430443	0.200711
53	C	0.501446	0.416184	0.196032
54	C	0.493989	0.387288	0.248306
55	C	0.518436	0.381546	0.219885
56	C	0.544063	0.406318	0.147657
57	C	0.572484	0.407866	0.102055
58	C	0.57641	0.385274	0.022556
59	C	0.607406	0.394038	0
60	C	0.626757	0.422786	0.062427
61	S	0.606954	0.439339	0.147584
62	S	0.537723	0.43596	0.11328
63	C	0.462259	0.424278	0.048598
64	C	0.443672	0.437245	0.039452
65	C	0.423704	0.430805	0.885957
66	C	0.405217	0.443658	0.875977
67	C	0.406657	0.463227	0.019247
68	C	0.42661	0.47056	0.176286
69	C	0.445198	0.457057	0.185986
70	C	0.465414	0.463201	0.341736
71	S	0.423874	0.538936	0.198754
72	C	0.400938	0.58349	0.022982
73	H	0.365883	0.621426	0.164634
74	H	0.352385	0.516004	0.432988
75	H	0.37199	0.477873	0.501217
76	H	0.449883	0.511644	0.589899
77	H	0.487464	0.50399	0.757911
78	H	0.519681	0.480583	0.776476
79	H	0.518093	0.446734	0.524966
80	H	0.47194	0.370925	0.303619
81	H	0.517359	0.360327	0.254286
82	H	0.557717	0.363598	0.981443
83	H	0.651206	0.434885	0.062272
84	H	0.461293	0.409256	0.934941
85	H	0.42242	0.415699	0.772387
86	H	0.389732	0.438569	0.756636
87	H	0.391814	0.47284	0.006694
88	H	0.414677	0.579502	0.921982
89	C	0.393923	0.78792	0
90	C	0.393421	0.769987	0.146653
91	S	0.420608	0.790428	0.313107
92	C	0.433211	0.823485	0.188653
93	C	0.457927	0.851595	0.258474
94	C	0.481422	0.855799	0.378313
95	C	0.50236	0.886827	0.413665
96	C	0.494083	0.905608	0.322775
97	C	0.509447	0.938635	0.32357
98	C	0.503649	0.952578	0.477633
99	C	0.516995	0.983925	0.488617
100	C	0.510807	0.997263	0.644025
101	C	0.52389	0.028402	0.655427
102	C	0.543259	0.046493	0.511011
103	C	0.550135	0.034022	0.351122
104	C	0.569561	0.051686	0.200711
105	C	0.58377	0.084664	0.196032
106	C	0.612801	0.106017	0.248306
107	C	0.618436	0.135972	0.219885
108	C	0.59345	0.13674	0.147657
109	C	0.591751	0.163382	0.102055
110	C	0.614398	0.189751	0.022556
111	C	0.605446	0.211769	0
112	C	0.576503	0.202357	0.062427
113	S	0.559997	0.166251	0.147584
114	S	0.563743	0.100963	0.11328
115	C	0.575851	0.037753	0.048598
116	C	0.562936	0.006421	0.039452
117	C	0.5695	0.993027	0.885957
118	C	0.556699	0.961909	0.875977
119	C	0.537058	0.943867	0.019247
120	C	0.529599	0.956358	0.176286
121	C	0.543051	0.988225	0.185986
122	C	0.536783	0.002159	0.341736
123	S	0.46101	0.88562	0.198754
124	C	0.416427	0.818551	0.022982
125	H	0.378546	0.746049	0.164634
126	H	0.484385	0.837545	0.432988
127	H	0.522542	0.894921	0.501217
128	H	0.488259	0.938563	0.589899
129	H	0.495745	0.983444	0.757911
130	H	0.519065	0.038678	0.776476
131	H	0.553034	0.070779	0.524966
132	H	0.629331	0.100433	0.303619
133	H	0.63973	0.156014	0.254286
134	H	0.636242	0.19278	0.981443
135	H	0.564239	0.214564	0.062272
136	H	0.590928	0.051741	0.934941
137	H	0.584663	0.006783	0.772387
138	H	0.561884	0.951616	0.756636
139	H	0.52749	0.919586	0.006694
140	H	0.420358	0.836143	0.921982
141	C	0.213012	0.605651	0
142	C	0.231007	0.622994	0.146653
143	S	0.210359	0.629617	0.313107
144	C	0.177128	0.609227	0.188653
145	C	0.148798	0.60577	0.258474
146	C	0.14446	0.624886	0.378313
147	C	0.113222	0.614779	0.413665
148	C	0.094421	0.587886	0.322775
149	C	0.061206	0.570264	0.32357
150	C	0.047246	0.550643	0.477633
151	C	0.015727	0.532691	0.488617
152	C	0.002377	0.513286	0.644025
153	C	0.971068	0.49528	0.655427
154	C	0.952818	0.496488	0.511011
155	C	0.965295	0.515714	0.351122
156	C	0.947473	0.517403	0.200711
157	C	0.914313	0.498684	0.196032
158	C	0.89274	0.506228	0.248306
159	C	0.862657	0.482015	0.219885
160	C	0.862016	0.456475	0.147657
161	C	0.835294	0.428284	0.102055
162	C	0.808721	0.424507	0.022556
163	C	0.786677	0.393726	0
164	C	0.796268	0.374389	0.062427
165	S	0.832578	0.393942	0.147584
166	S	0.898063	0.46261	0.11328
167	C	0.96142	0.537502	0.048598
168	C	0.992921	0.555866	0.039452
169	C	0.006326	0.5757	0.885957
170	C	0.037613	0.593966	0.875977
171	C	0.055815	0.592438	0.019247
172	C	0.043321	0.572614	0.176286
173	C	0.01128	0.554251	0.185986
174	C	0.997332	0.534173	0.341736
175	S	0.114645	0.574976	0.198754
176	C	0.182164	0.597491	0.022982
177	H	0.255101	0.632058	0.164634
178	H	0.162759	0.645984	0.432988
179	H	0.104998	0.626739	0.501217
180	H	0.061387	0.549326	0.589899
181	H	0.01632	0.512099	0.757911
182	H	0.960783	0.480271	0.776476
183	H	0.928401	0.48202	0.524966
184	H	0.898259	0.528175	0.303619
185	H	0.84244	0.483192	0.254286
186	H	0.80557	0.443154	0.981443
187	H	0.784084	0.350084	0.062272
188	H	0.947308	0.538536	0.934941
189	H	0.992447	0.577051	0.772387
190	H	0.047913	0.609347	0.756636
191	H	0.080225	0.607107	0.006694
192	H	0.164494	0.583888	0.921982
