data_C78H36N12O6S12_2023-05-12_04:25:33
#******************************************
#
# CIF file created by Zeo++
# Zeo++ is an open source package to
# analyze microporous materials
#
#*******************************************

_cell_length_a		48.3914   
_cell_length_b		48.6899   
_cell_length_c		7   
_cell_angle_alpha		90   
_cell_angle_beta		90   
_cell_angle_gamma		119.732   

_symmetry_space_group_name_H-M		'P1'
_symmetry_Int_Tables_number		1
_symmetry_cell_setting		Monoclinic

loop_
_symmetry_equiv_pos_as_xyz
'+x,+y,+z'

loop_
_atom_site_label
_atom_site_type_symbol
_atom_site_fract_x
_atom_site_fract_y
_atom_site_fract_z
1	C	0.36536	0.673359	0.999995
2	O	0.393439	0.678281	0.999991
3	C	0.339988	0.640471	0.999998
4	C	0.344927	0.61623	0
5	N	0.376358	0.621898	0
6	C	0.307516	0.634634	3e-06
7	O	0.284714	0.606287	5e-06
8	C	0.299705	0.659927	6e-06
9	C	0.269823	0.653823	5e-06
10	N	0.245135	0.621571	0
11	C	0.326298	0.692552	4e-06
12	O	0.32009	0.714425	7e-06
13	C	0.359293	0.699855	0.999999
14	C	0.382736	0.729619	0.999998
15	N	0.378013	0.75604	0
16	H	0.325503	0.59263	1e-06
17	H	0.263512	0.67194	8e-06
18	H	0.406457	0.733869	0.999997
19	C	0.63464	0.326641	0.999995
20	O	0.606561	0.321719	0.999991
21	C	0.660012	0.359529	0.999998
22	C	0.655073	0.38377	0
23	N	0.623642	0.378102	0
24	C	0.692484	0.365366	3e-06
25	O	0.715286	0.393713	5e-06
26	C	0.700295	0.340073	6e-06
27	C	0.730177	0.346177	5e-06
28	N	0.754865	0.378429	0
29	C	0.673702	0.307448	4e-06
30	O	0.67991	0.285575	7e-06
31	C	0.640707	0.300145	0.999999
32	C	0.617264	0.270381	0.999998
33	N	0.621987	0.24396	0
34	H	0.674497	0.40737	1e-06
35	H	0.736488	0.32806	8e-06
36	H	0.593543	0.266131	0.999997
37	C	0.39555	0.602977	0
38	C	0.399712	0.598875	0.189224
39	S	0.420074	0.578802	0.216512
40	C	0.423414	0.575507	0.973153
41	C	0.439517	0.559631	0.894474
42	C	0.45398	0.545371	0.991742
43	C	0.467902	0.531646	0.869974
44	C	0.484612	0.515172	0.934208
45	C	0.497754	0.502216	0.811838
46	N	0.513216	0.486971	0.873771
47	C	0.515389	0.484828	0.065793
48	C	0.532099	0.468354	0.130027
49	C	0.536729	0.463789	0.319322
50	S	0.557093	0.443712	0.347562
51	C	0.560483	0.440369	0.105527
52	C	0.576586	0.424492	0.026847
53	C	0.591057	0.410228	0.124693
54	C	0.60445	0.397023	0
55	C	0.600287	0.401123	0.810776
56	S	0.579925	0.421197	0.783489
57	C	0.546019	0.454629	0.008258
58	C	0.502246	0.497785	0.188163
59	N	0.486784	0.513029	0.126229
60	C	0.463272	0.536212	0.680678
61	S	0.442908	0.556289	0.652439
62	C	0.408943	0.589773	0.875307
63	H	0.391924	0.606554	0.31272
64	H	0.454866	0.544498	0.146328
65	H	0.496524	0.503428	0.657774
66	H	0.529391	0.471024	0.446585
67	H	0.591991	0.40931	0.279027
68	H	0.608074	0.393444	0.68728
69	H	0.545133	0.455502	0.853672
70	H	0.503476	0.496572	0.342227
71	H	0.47061	0.528977	0.553415
72	H	0.40801	0.590691	0.720973
73	C	0.396897	0.793883	0
74	C	0.40099	0.802087	0.189224
75	S	0.421024	0.842236	0.216512
76	C	0.424312	0.848823	0.973153
77	C	0.440157	0.880576	0.894474
78	C	0.454388	0.909095	0.991742
79	C	0.468086	0.936545	0.869974
80	C	0.484527	0.969493	0.934208
81	C	0.497458	0.995407	0.811838
82	N	0.512672	0.025895	0.873771
83	C	0.51481	0.03018	0.065793
84	C	0.531252	0.063129	0.130027
85	C	0.535808	0.072259	0.319322
86	S	0.555845	0.112412	0.347562
87	C	0.559181	0.119098	0.105527
88	C	0.575026	0.15085	0.026847
89	C	0.589263	0.179382	0.124693
90	C	0.602441	0.205791	0
91	C	0.598349	0.197586	0.810776
92	S	0.578315	0.157438	0.783489
93	C	0.54495	0.090578	0.008258
94	C	0.50188	0.004266	0.188163
95	N	0.486666	0.973778	0.126229
96	C	0.463529	0.927415	0.680678
97	S	0.443492	0.887261	0.652439
98	C	0.410075	0.820291	0.875307
99	H	0.393327	0.786731	0.31272
100	H	0.45526	0.910842	0.146328
101	H	0.496247	0.992982	0.657774
102	H	0.528588	0.05779	0.446585
103	H	0.590178	0.18122	0.279027
104	H	0.606013	0.212942	0.68728
105	H	0.544079	0.088832	0.853672
106	H	0.50309	0.006692	0.342227
107	H	0.470749	0.941884	0.553415
108	H	0.409158	0.818454	0.720973
109	C	0.207059	0.60265	0
110	C	0.198804	0.598547	0.189224
111	S	0.158408	0.578472	0.216512
112	C	0.15178	0.575179	0.973153
113	C	0.119832	0.559303	0.894474
114	C	0.091137	0.545044	0.991742
115	C	0.063518	0.531319	0.869974
116	C	0.030367	0.514844	0.934208
117	C	0.004294	0.501887	0.811838
118	N	0.973618	0.486643	0.873771
119	C	0.969307	0.484501	0.065793
120	C	0.936155	0.468027	0.130027
121	C	0.926969	0.463462	0.319322
122	S	0.886568	0.443385	0.347562
123	C	0.879842	0.440043	0.105527
124	C	0.847893	0.424167	0.026847
125	C	0.819186	0.4099	0.124693
126	C	0.792615	0.396696	0
127	C	0.80087	0.4008	0.810776
128	S	0.841266	0.420875	0.783489
129	C	0.908537	0.454303	0.008258
130	C	0.99538	0.497459	0.188163
131	N	0.026056	0.512703	0.126229
132	C	0.072705	0.535883	0.680678
133	S	0.113106	0.55596	0.652439
134	C	0.180488	0.589446	0.875307
135	H	0.214255	0.606225	0.31272
136	H	0.08938	0.54417	0.146328
137	H	0.006734	0.5031	0.657774
138	H	0.941527	0.470697	0.446585
139	H	0.817337	0.408979	0.279027
140	H	0.785419	0.393123	0.68728
141	H	0.910294	0.455176	0.853672
142	H	0.99294	0.496246	0.342227
143	H	0.058146	0.528648	0.553415
144	H	0.182337	0.590365	0.720973
