data_C96H48N12O6S12_2023-05-28_18:18:07
#******************************************
#
# CIF file created by Zeo++
# Zeo++ is an open source package to
# analyze microporous materials
#
#*******************************************

_cell_length_a		51.6452   
_cell_length_b		51.9436   
_cell_length_c		7   
_cell_angle_alpha		90   
_cell_angle_beta		90   
_cell_angle_gamma		119.749   

_symmetry_space_group_name_H-M		'P1'
_symmetry_Int_Tables_number		1
_symmetry_cell_setting		Monoclinic

loop_
_symmetry_equiv_pos_as_xyz
'+x,+y,+z'

loop_
_atom_site_label
_atom_site_type_symbol
_atom_site_fract_x
_atom_site_fract_y
_atom_site_fract_z
1	C	0.363345	0.672941	0.999995
2	O	0.389656	0.677555	0.999991
3	C	0.339561	0.642108	0.999998
4	C	0.34418	0.619381	0
5	N	0.373633	0.624696	0
6	C	0.309132	0.636635	3e-06
7	O	0.287758	0.61006	5e-06
8	C	0.301822	0.660348	6e-06
9	C	0.27382	0.654625	5e-06
10	N	0.250677	0.624389	0
11	C	0.32675	0.690935	4e-06
12	O	0.32094	0.71144	7e-06
13	C	0.357668	0.697782	0.999999
14	C	0.379644	0.725686	0.999998
15	N	0.375226	0.750455	0
16	H	0.325973	0.597256	1e-06
17	H	0.267913	0.67161	8e-06
18	H	0.401871	0.72967	0.999997
19	C	0.636655	0.327059	0.999995
20	O	0.610344	0.322445	0.999991
21	C	0.660439	0.357892	0.999998
22	C	0.65582	0.380619	0
23	N	0.626367	0.375304	0
24	C	0.690868	0.363365	3e-06
25	O	0.712242	0.38994	5e-06
26	C	0.698178	0.339652	6e-06
27	C	0.72618	0.345375	5e-06
28	N	0.749323	0.375611	0
29	C	0.67325	0.309065	4e-06
30	O	0.67906	0.28856	7e-06
31	C	0.642332	0.302218	0.999999
32	C	0.620356	0.274314	0.999998
33	N	0.624774	0.249545	0
34	H	0.674027	0.402744	1e-06
35	H	0.732087	0.32839	8e-06
36	H	0.598129	0.27033	0.999997
37	C	0.60839	0.393043	0
38	C	0.618609	0.382962	0.146232
39	S	0.609813	0.391647	0.363108
40	C	0.592152	0.409073	0.261141
41	C	0.578638	0.422413	0.377069
42	C	0.577506	0.423544	0.573853
43	C	0.562322	0.438529	0.639443
44	C	0.551862	0.448836	0.492819
45	C	0.535192	0.465282	0.504716
46	C	0.528083	0.472294	0.682597
47	C	0.512568	0.487601	0.690144
48	N	0.503697	0.496352	0.534621
49	C	0.510229	0.489909	0.359153
50	C	0.499746	0.500249	0.192405
51	C	0.504429	0.495622	0.002187
52	C	0.493758	0.506149	0.856453
53	C	0.478566	0.521143	0.902164
54	C	0.474455	0.525205	0.093361
55	C	0.458829	0.540627	0.163157
56	C	0.453963	0.545432	0.350939
57	C	0.438011	0.561174	0.368551
58	C	0.430762	0.568324	0.193822
59	C	0.414722	0.584152	0.156508
60	C	0.407464	0.591312	0.981129
61	C	0.39161	0.606957	0
62	C	0.386859	0.611647	0.186041
63	S	0.401757	0.596948	0.339911
64	S	0.443698	0.555556	0.01157
65	N	0.484827	0.514975	0.23518
66	C	0.525905	0.474445	0.342058
67	S	0.561058	0.439748	0.276656
68	C	0.593271	0.407965	0.063489
69	H	0.630738	0.370994	0.137564
70	H	0.587079	0.414107	0.669553
71	H	0.559445	0.441378	0.789689
72	H	0.53428	0.466179	0.815806
73	H	0.506655	0.493433	0.825909
74	H	0.516195	0.484009	0.962685
75	H	0.497286	0.502662	0.707837
76	H	0.470314	0.529283	0.788309
77	H	0.461674	0.537825	0.471059
78	H	0.432296	0.566817	0.505141
79	H	0.413282	0.58557	0.845248
80	H	0.375477	0.62288	0.239947
81	H	0.530936	0.469484	0.201344
82	H	0.583661	0.417447	0.968572
83	C	0.606447	0.21376	0
84	C	0.61651	0.233925	0.146232
85	S	0.607841	0.21656	0.363108
86	C	0.590447	0.181707	0.261141
87	C	0.577132	0.155031	0.377069
88	C	0.576004	0.152785	0.573853
89	C	0.561046	0.122816	0.639443
90	C	0.550758	0.102187	0.492819
91	C	0.534343	0.069292	0.504716
92	C	0.527344	0.055265	0.682597
93	C	0.512066	0.024648	0.690144
94	N	0.503331	0.007143	0.534621
95	C	0.509762	0.020031	0.359153
96	C	0.499441	0.999347	0.192405
97	C	0.504059	0.008595	0.002187
98	C	0.493552	0.987539	0.856453
99	C	0.478587	0.957554	0.902164
100	C	0.474532	0.949435	0.093361
101	C	0.459138	0.918593	0.163157
102	C	0.454342	0.908987	0.350939
103	C	0.43863	0.877504	0.368551
104	C	0.431493	0.8632	0.193822
105	C	0.415695	0.831545	0.156508
106	C	0.408548	0.817222	0.981129
107	C	0.392933	0.785934	0
108	C	0.388251	0.776556	0.186041
109	S	0.402923	0.805956	0.339911
110	S	0.444237	0.888733	0.01157
111	N	0.484743	0.969899	0.23518
112	C	0.525197	0.050965	0.342058
113	S	0.55983	0.120349	0.276656
114	C	0.591553	0.183919	0.063489
115	H	0.628456	0.257862	0.137564
116	H	0.585422	0.171667	0.669553
117	H	0.558203	0.117128	0.789689
118	H	0.533447	0.067494	0.815806
119	H	0.506245	0.012981	0.825909
120	H	0.515651	0.031819	0.962685
121	H	0.497033	0.994507	0.707837
122	H	0.470462	0.941271	0.788309
123	H	0.461935	0.924202	0.471059
124	H	0.432997	0.866221	0.505141
125	H	0.41428	0.828706	0.845248
126	H	0.377039	0.754091	0.239947
127	H	0.530149	0.06089	0.201344
128	H	0.582089	0.164954	0.968572
129	C	0.7847	0.392737	0
130	C	0.764418	0.382653	0.146232
131	S	0.781883	0.391333	0.363108
132	C	0.816937	0.40876	0.261141
133	C	0.843767	0.422096	0.377069
134	C	0.846027	0.423212	0.573853
135	C	0.876169	0.438196	0.639443
136	C	0.896917	0.448517	0.492819
137	C	0.930001	0.464967	0.504716
138	C	0.944109	0.471982	0.682597
139	C	0.974903	0.487292	0.690144
140	N	0.992509	0.496045	0.534621
141	C	0.979546	0.4896	0.359153
142	C	0.00035	0.499944	0.192405
143	C	0.991049	0.495323	0.002187
144	C	0.012226	0.505853	0.856453
145	C	0.042384	0.520844	0.902164
146	C	0.05055	0.5249	0.093361
147	C	0.08157	0.54032	0.163157
148	C	0.091231	0.545121	0.350939
149	C	0.122896	0.560862	0.368551
150	C	0.137282	0.568016	0.193822
151	C	0.16912	0.583844	0.156508
152	C	0.183526	0.591006	0.981129
153	C	0.214994	0.60665	0
154	C	0.224426	0.611338	0.186041
155	S	0.194857	0.596637	0.339911
156	S	0.111602	0.555251	0.01157
157	N	0.029967	0.514666	0.23518
158	C	0.948434	0.474131	0.342058
159	S	0.87865	0.439443	0.276656
160	C	0.814713	0.407656	0.063489
161	H	0.740343	0.370684	0.137564
162	H	0.827035	0.413765	0.669553
163	H	0.881889	0.441034	0.789689
164	H	0.93181	0.465867	0.815806
165	H	0.986637	0.493126	0.825909
166	H	0.967691	0.483713	0.962685
167	H	0.005218	0.502371	0.707837
168	H	0.058761	0.528987	0.788309
169	H	0.075928	0.537513	0.471059
170	H	0.134244	0.566502	0.505141
171	H	0.171975	0.585265	0.845248
172	H	0.247021	0.62257	0.239947
173	H	0.938452	0.469166	0.201344
174	H	0.833788	0.417139	0.968572
