data_C120H60N12O6S18_2023-05-12_21:44:02
#******************************************
#
# CIF file created by Zeo++
# Zeo++ is an open source package to
# analyze microporous materials
#
#*******************************************

_cell_length_a		66.6839   
_cell_length_b		66.9823   
_cell_length_c		7   
_cell_angle_alpha		90   
_cell_angle_beta		90   
_cell_angle_gamma		119.805   

_symmetry_space_group_name_H-M		'P1'
_symmetry_Int_Tables_number		1
_symmetry_cell_setting		Monoclinic

loop_
_symmetry_equiv_pos_as_xyz
'+x,+y,+z'

loop_
_atom_site_label
_atom_site_type_symbol
_atom_site_fract_x
_atom_site_fract_y
_atom_site_fract_z
1	C	0.356582	0.671535	0.999995
2	O	0.376964	0.675115	0.999991
3	C	0.338135	0.647611	0.999998
4	C	0.341692	0.629977	0
5	N	0.364508	0.634101	0
6	C	0.314564	0.643365	3e-06
7	O	0.297986	0.622744	5e-06
8	C	0.308923	0.661764	6e-06
9	C	0.287231	0.657324	5e-06
10	N	0.269281	0.633863	0
11	C	0.328256	0.685497	4e-06
12	O	0.323775	0.701408	7e-06
13	C	0.352208	0.690809	0.999999
14	C	0.369252	0.712461	0.999998
15	N	0.365853	0.73168	0
16	H	0.327572	0.61281	1e-06
17	H	0.282671	0.670502	8e-06
18	H	0.38647	0.715552	0.999997
19	C	0.643418	0.328465	0.999995
20	O	0.623036	0.324885	0.999991
21	C	0.661865	0.352389	0.999998
22	C	0.658308	0.370023	0
23	N	0.635492	0.365899	0
24	C	0.685436	0.356635	3e-06
25	O	0.702014	0.377256	5e-06
26	C	0.691077	0.338236	6e-06
27	C	0.712769	0.342676	5e-06
28	N	0.730719	0.366137	0
29	C	0.671744	0.314503	4e-06
30	O	0.676225	0.298592	7e-06
31	C	0.647792	0.309191	0.999999
32	C	0.630748	0.287539	0.999998
33	N	0.634147	0.26832	0
34	H	0.672428	0.38719	1e-06
35	H	0.717329	0.329498	8e-06
36	H	0.61353	0.284448	0.999997
37	C	0.621585	0.379664	0
38	C	0.611177	0.362149	0.129757
39	C	0.597762	0.366683	0.263769
40	C	0.598401	0.387431	0.231279
41	C	0.586848	0.39705	0.342438
42	C	0.575088	0.388585	0.512918
43	C	0.565777	0.402098	0.587319
44	C	0.570423	0.420693	0.472367
45	C	0.563902	0.437968	0.508789
46	C	0.560424	0.444938	0.685632
47	C	0.554162	0.462396	0.672841
48	C	0.552786	0.468425	0.486264
49	C	0.546593	0.485336	0.415807
50	C	0.556142	0.498402	0.251042
51	C	0.549586	0.514272	0.191901
52	C	0.533546	0.517164	0.298525
53	C	0.525962	0.533738	0.242562
54	C	0.510987	0.537657	0.355151
55	C	0.504397	0.553484	0.295521
56	C	0.512647	0.565246	0.123219
57	C	0.506496	0.582152	0.052798
58	C	0.520236	0.60262	0.958133
59	C	0.508054	0.614357	0.908343
60	C	0.485155	0.602713	0.965352
61	C	0.468177	0.609891	0.934493
62	C	0.469404	0.625656	0.8009
63	C	0.449992	0.629162	0.807631
64	C	0.434122	0.616076	0.946635
65	C	0.412528	0.615194	0.993826
66	C	0.397284	0.603173	0.140805
67	C	0.37747	0.606103	0.144244
68	C	0.378415	0.620336	0
69	S	0.402353	0.630105	0.862877
70	S	0.443301	0.599699	0.066358
71	S	0.478927	0.577544	0.078533
72	C	0.527511	0.560314	0.020106
73	N	0.534328	0.545152	0.074744
74	N	0.524136	0.504726	0.460272
75	C	0.530749	0.489349	0.513409
76	S	0.558993	0.452501	0.329905
77	S	0.58601	0.421296	0.275573
78	S	0.615531	0.401065	0.035782
79	H	0.61293	0.34691	0.130437
80	H	0.588074	0.35502	0.378618
81	H	0.573206	0.373377	0.583902
82	H	0.556047	0.398159	0.719383
83	H	0.562541	0.438101	0.819688
84	H	0.551033	0.470229	0.796355
85	H	0.568854	0.496641	0.16661
86	H	0.557089	0.524317	0.063222
87	H	0.504451	0.528531	0.489273
88	H	0.492928	0.556478	0.386379
89	H	0.538351	0.609128	0.926239
90	H	0.515985	0.630742	0.834537
91	H	0.483513	0.63436	0.700572
92	H	0.448019	0.640879	0.713097
93	H	0.399998	0.592574	0.242749
94	H	0.363532	0.598122	0.247109
95	H	0.534632	0.568566	0.883728
96	H	0.522308	0.479857	0.642439
97	C	0.619923	0.240554	0
98	C	0.637522	0.247658	0.129757
99	C	0.63303	0.229813	0.263769
100	C	0.612227	0.209781	0.231279
101	C	0.602628	0.18872	0.342438
102	C	0.611161	0.185468	0.512918
103	C	0.597651	0.162756	0.587319
104	C	0.578991	0.148851	0.472367
105	C	0.561698	0.125164	0.508789
106	C	0.554724	0.114765	0.685632
107	C	0.537247	0.091154	0.672841
108	C	0.531208	0.083781	0.486264
109	C	0.514279	0.060783	0.415807
110	C	0.501142	0.057256	0.251042
111	C	0.485258	0.034934	0.191901
112	C	0.482421	0.016116	0.298525
113	C	0.465835	0.99207	0.242562
114	C	0.461965	0.973288	0.355151
115	C	0.446125	0.950976	0.295521
116	C	0.434301	0.947457	0.123219
117	C	0.417376	0.924505	0.052798
118	C	0.396803	0.91777	0.958133
119	C	0.385084	0.893974	0.908343
120	C	0.396846	0.88282	0.965352
121	C	0.389717	0.8588	0.934493
122	C	0.373908	0.844317	0.8009
123	C	0.370469	0.821537	0.807631
124	C	0.38365	0.818803	0.946635
125	C	0.384619	0.798226	0.993826
126	C	0.39673	0.795053	0.140805
127	C	0.39387	0.772447	0.144244
128	C	0.379597	0.759208	0
129	S	0.369711	0.773263	0.862877
130	S	0.400032	0.844236	0.066358
131	S	0.422104	0.901703	0.078533
132	C	0.439187	0.967139	0.020106
133	N	0.45436	0.989014	0.074744
134	N	0.494928	0.019156	0.460272
135	C	0.510317	0.041042	0.513409
136	S	0.547147	0.105809	0.329905
137	S	0.578325	0.163737	0.275573
138	S	0.598491	0.213221	0.035782
139	H	0.652793	0.26458	0.130437
140	H	0.644759	0.231804	0.378618
141	H	0.626415	0.198747	0.583902
142	H	0.601638	0.157013	0.719383
143	H	0.56157	0.123679	0.819688
144	H	0.529406	0.080243	0.796355
145	H	0.502858	0.071641	0.16661
146	H	0.475158	0.032383	0.063222
147	H	0.471139	0.975884	0.489273
148	H	0.443167	0.936597	0.386379
149	H	0.390208	0.929286	0.926239
150	H	0.368627	0.885534	0.834537
151	H	0.365127	0.849666	0.700572
152	H	0.358731	0.807906	0.713097
153	H	0.407345	0.808308	0.242749
154	H	0.401926	0.766549	0.247109
155	H	0.430886	0.965994	0.883728
156	H	0.519866	0.04211	0.642439
157	C	0.758133	0.379426	0
158	C	0.750942	0.389836	0.129757
159	C	0.768849	0.403147	0.263769
160	C	0.789014	0.402431	0.231279
161	C	0.810165	0.413872	0.342438
162	C	0.813392	0.425591	0.512918
163	C	0.836213	0.434789	0.587319
164	C	0.850227	0.4301	0.472367
165	C	0.874041	0.436512	0.508789
166	C	0.884494	0.439941	0.685632
167	C	0.908232	0.446094	0.672841
168	C	0.915648	0.447438	0.486264
169	C	0.938769	0.453524	0.415807
170	C	0.942357	0.443986	0.251042
171	C	0.964797	0.450437	0.191901
172	C	0.983674	0.466363	0.298525
173	C	0.007845	0.473835	0.242562
174	C	0.026689	0.488698	0.355151
175	C	0.049119	0.495184	0.295521
176	C	0.052693	0.48694	0.123219
177	C	0.075769	0.492986	0.052798
178	C	0.082602	0.479254	0.958133
179	C	0.106503	0.491312	0.908343
180	C	0.11764	0.51411	0.965352
181	C	0.141748	0.530952	0.934493
182	C	0.156329	0.52967	0.8009
183	C	0.17918	0.548944	0.807631
184	C	0.181869	0.564764	0.946635
185	C	0.202495	0.586224	0.993826
186	C	0.205628	0.601417	0.140805
187	C	0.228302	0.621093	0.144244
188	C	0.241629	0.620098	0
189	S	0.227578	0.596275	0.862877
190	S	0.156308	0.555708	0.066358
191	S	0.09861	0.520396	0.078533
192	C	0.032943	0.472191	0.020106
193	N	0.010954	0.465477	0.074744
194	N	0.980577	0.475762	0.460272
195	C	0.958575	0.469251	0.513409
196	S	0.893501	0.441333	0.329905
197	S	0.835306	0.414611	0.275573
198	S	0.785619	0.385358	0.035782
199	H	0.733918	0.388154	0.130437
200	H	0.766808	0.412819	0.378618
201	H	0.80002	0.42752	0.583902
202	H	0.841956	0.444472	0.719383
203	H	0.87553	0.437863	0.819688
204	H	0.919202	0.449172	0.796355
205	H	0.927929	0.431361	0.16661
206	H	0.967394	0.442943	0.063222
207	H	0.02405	0.495228	0.489273
208	H	0.063546	0.506567	0.386379
209	H	0.071082	0.461229	0.926239
210	H	0.115029	0.483367	0.834537
211	H	0.151001	0.515617	0.700572
212	H	0.192892	0.550859	0.713097
213	H	0.192298	0.598762	0.242749
214	H	0.234183	0.634973	0.247109
215	H	0.034124	0.465084	0.883728
216	H	0.957467	0.477675	0.642439
