data_C60H30N18O6_2023-05-10_22:29:06
#******************************************
#
# CIF file created by Zeo++
# Zeo++ is an open source package to
# analyze microporous materials
#
#*******************************************

_cell_length_a		37.7608   
_cell_length_b		38.0594   
_cell_length_c		7   
_cell_angle_alpha		90   
_cell_angle_beta		90   
_cell_angle_gamma		119.657   

_symmetry_space_group_name_H-M		'P1'
_symmetry_Int_Tables_number		1
_symmetry_cell_setting		Monoclinic

loop_
_symmetry_equiv_pos_as_xyz
'+x,+y,+z'

loop_
_atom_site_label
_atom_site_type_symbol
_atom_site_fract_x
_atom_site_fract_y
_atom_site_fract_z
1	C	0.374363	0.675222	0.999995
2	O	0.410338	0.681514	0.999991
3	C	0.341913	0.633179	0.999998
4	C	0.348288	0.60219	0
5	N	0.388557	0.609437	0
6	C	0.30031	0.625717	3e-06
7	O	0.271143	0.58948	5e-06
8	C	0.290251	0.65805	6e-06
9	C	0.251968	0.650248	5e-06
10	N	0.220392	0.609019	0
11	C	0.324267	0.699758	4e-06
12	O	0.316269	0.727718	7e-06
13	C	0.366537	0.709094	0.999999
14	C	0.396522	0.747143	0.999998
15	N	0.390418	0.780918	0
16	H	0.323442	0.572022	1e-06
17	H	0.243845	0.673407	8e-06
18	H	0.426912	0.752576	0.999997
19	C	0.625637	0.324778	0.999995
20	O	0.589662	0.318486	0.999991
21	C	0.658087	0.366821	0.999998
22	C	0.651712	0.39781	0
23	N	0.611443	0.390563	0
24	C	0.69969	0.374283	3e-06
25	O	0.728857	0.41052	5e-06
26	C	0.709749	0.34195	6e-06
27	C	0.748032	0.349752	5e-06
28	N	0.779608	0.390981	0
29	C	0.675733	0.300242	4e-06
30	O	0.683731	0.272282	7e-06
31	C	0.633463	0.290906	0.999999
32	C	0.603478	0.252857	0.999998
33	N	0.609582	0.219082	0
34	H	0.676558	0.427978	1e-06
35	H	0.756155	0.326593	8e-06
36	H	0.573088	0.247424	0.999997
37	C	0.413189	0.585248	0
38	C	0.423465	0.575159	0.827043
39	C	0.444967	0.554046	0.829106
40	C	0.456022	0.543188	0.001784
41	C	0.478772	0.520848	0.004719
42	C	0.490813	0.509022	0.169146
43	N	0.511765	0.488447	0.168213
44	C	0.52123	0.479154	0.995289
45	C	0.54398	0.456814	0.998222
46	C	0.555035	0.445955	0.170898
47	C	0.576535	0.42484	0.172958
48	C	0.586811	0.414752	0
49	N	0.577053	0.424336	0.83011
50	C	0.556152	0.444861	0.833726
51	C	0.509189	0.49098	0.830862
52	N	0.488237	0.511555	0.831795
53	C	0.443849	0.55514	0.166278
54	N	0.422949	0.575666	0.169891
55	H	0.415194	0.583281	0.692466
56	H	0.453112	0.546046	0.693068
57	H	0.484255	0.515462	0.311507
58	H	0.546889	0.453954	0.306937
59	H	0.584806	0.416718	0.307534
60	H	0.549522	0.451376	0.691275
61	H	0.515748	0.48454	0.6885
62	H	0.450481	0.548628	0.30873
63	C	0.414544	0.829295	0
64	C	0.424608	0.849475	0.827043
65	C	0.445668	0.891703	0.829106
66	C	0.456498	0.913417	0.001784
67	C	0.47878	0.958097	0.004719
68	C	0.490576	0.981748	0.169146
69	N	0.511099	0.022898	0.168213
70	C	0.520368	0.041486	0.995289
71	C	0.542652	0.086166	0.998222
72	C	0.553482	0.10788	0.170898
73	C	0.574543	0.150108	0.172958
74	C	0.584606	0.170288	0
75	N	0.575046	0.151121	0.83011
76	C	0.554573	0.110072	0.833726
77	C	0.508572	0.017835	0.830862
78	N	0.48805	0.976685	0.831795
79	C	0.444575	0.889511	0.166278
80	N	0.424103	0.848461	0.169891
81	H	0.416507	0.833231	0.692466
82	H	0.453646	0.907701	0.693068
83	H	0.484153	0.968867	0.311507
84	H	0.545504	0.091882	0.306937
85	H	0.582645	0.166352	0.307534
86	H	0.548075	0.097046	0.691275
87	H	0.514995	0.030715	0.6885
88	H	0.451071	0.902536	0.30873
89	C	0.171634	0.58483	0
90	C	0.151294	0.57474	0.827043
91	C	0.108733	0.553625	0.829106
92	C	0.086848	0.542769	0.001784
93	C	0.041815	0.520428	0.004719
94	C	0.017977	0.508603	0.169146
95	N	0.976503	0.488029	0.168213
96	C	0.957769	0.478734	0.995289
97	C	0.912736	0.456394	0.998222
98	C	0.89085	0.445538	0.170898
99	C	0.848289	0.424424	0.172958
100	C	0.82795	0.414334	0
101	N	0.847268	0.423916	0.83011
102	C	0.888641	0.44444	0.833726
103	C	0.981606	0.490559	0.830862
104	N	0.02308	0.511134	0.831795
105	C	0.110942	0.554722	0.166278
106	N	0.152316	0.575246	0.169891
107	H	0.167666	0.582861	0.692466
108	H	0.092608	0.545626	0.693068
109	H	0.03096	0.515044	0.311507
110	H	0.906974	0.453537	0.306937
111	H	0.831916	0.416303	0.307534
112	H	0.90177	0.450951	0.691275
113	H	0.968624	0.484118	0.6885
114	H	0.097815	0.548209	0.30873
