data_C96H42N6O6S18_2023-05-15_07:34:00
#******************************************
#
# CIF file created by Zeo++
# Zeo++ is an open source package to
# analyze microporous materials
#
#*******************************************

_cell_length_a		57.7518   
_cell_length_b		58.0502   
_cell_length_c		7   
_cell_angle_alpha		90   
_cell_angle_beta		90   
_cell_angle_gamma		119.775   

_symmetry_space_group_name_H-M		'P1'
_symmetry_Int_Tables_number		1
_symmetry_cell_setting		Monoclinic

loop_
_symmetry_equiv_pos_as_xyz
'+x,+y,+z'

loop_
_atom_site_label
_atom_site_type_symbol
_atom_site_fract_x
_atom_site_fract_y
_atom_site_fract_z
1	C	0.360174	0.672283	0.999995
2	O	0.383706	0.676412	0.999991
3	C	0.338891	0.644686	0.999998
4	C	0.343011	0.624344	0
5	N	0.369352	0.629101	0
6	C	0.311677	0.639787	3e-06
7	O	0.29255	0.616001	5e-06
8	C	0.305151	0.661011	6e-06
9	C	0.280107	0.655889	5e-06
10	N	0.259397	0.628827	0
11	C	0.327458	0.688388	4e-06
12	O	0.322272	0.706741	7e-06
13	C	0.35511	0.694516	0.999999
14	C	0.374775	0.719491	0.999998
15	N	0.370837	0.741661	0
16	H	0.326718	0.604542	1e-06
17	H	0.274833	0.671091	8e-06
18	H	0.394654	0.723057	0.999997
19	C	0.639826	0.327717	0.999995
20	O	0.616294	0.323588	0.999991
21	C	0.661109	0.355314	0.999998
22	C	0.656989	0.375656	0
23	N	0.630648	0.370899	0
24	C	0.688323	0.360213	3e-06
25	O	0.70745	0.383999	5e-06
26	C	0.694849	0.338989	6e-06
27	C	0.719893	0.344111	5e-06
28	N	0.740603	0.371173	0
29	C	0.672542	0.311612	4e-06
30	O	0.677728	0.293259	7e-06
31	C	0.64489	0.305484	0.999999
32	C	0.625225	0.280509	0.999998
33	N	0.629163	0.258339	0
34	H	0.673282	0.395458	1e-06
35	H	0.725167	0.328909	8e-06
36	H	0.605346	0.276943	0.999997
37	C	0.614581	0.386776	0
38	C	0.62575	0.408561	0.882967
39	S	0.616587	0.431189	0.950728
40	C	0.59748	0.41172	0.137764
41	C	0.583095	0.41972	0.266505
42	C	0.57424	0.409997	0.448134
43	C	0.560519	0.421847	0.537806
44	C	0.558819	0.440319	0.422938
45	C	0.54632	0.45587	0.471652
46	C	0.540935	0.461304	0.653848
47	C	0.528173	0.47698	0.653669
48	C	0.524054	0.483062	0.471341
49	C	0.511733	0.498403	0.425606
50	C	0.501348	0.511318	0.386759
51	C	0.489037	0.526643	0.340227
52	C	0.497315	0.551896	0.405573
53	C	0.481057	0.56213	0.334154
54	C	0.460734	0.544453	0.215865
55	C	0.440561	0.548066	0.119004
56	C	0.422177	0.531745	0.984655
57	C	0.405208	0.541486	0.919577
58	C	0.410741	0.56516	0.004824
59	C	0.397669	0.58068	0.973782
60	C	0.401833	0.603331	0.069924
61	C	0.385419	0.613224	0
62	C	0.369043	0.598408	0.853538
63	S	0.373545	0.572176	0.800026
64	S	0.436695	0.57506	0.163015
65	S	0.461944	0.51552	0.194504
66	S	0.535521	0.469964	0.303027
67	S	0.574281	0.443034	0.208271
68	C	0.598469	0.388359	0.146316
69	H	0.6388	0.412451	0.761964
70	H	0.577475	0.395081	0.516095
71	H	0.552152	0.416718	0.680205
72	H	0.546011	0.454534	0.783141
73	H	0.522374	0.483385	0.781494
74	H	0.514213	0.562683	0.499939
75	H	0.484429	0.581743	0.368992
76	H	0.420688	0.513448	0.933164
77	H	0.389634	0.531222	0.814456
78	H	0.416033	0.612402	0.185434
79	H	0.354708	0.601549	0.77517
80	H	0.587994	0.373082	0.252855
81	C	0.612758	0.22631	0
82	C	0.590859	0.215711	0.882967
83	S	0.568207	0.18409	0.950728
84	C	0.587819	0.184505	0.137764
85	C	0.579861	0.162262	0.266505
86	C	0.589652	0.163152	0.448134
87	C	0.577829	0.137735	0.537806
88	C	0.559311	0.117659	0.422938
89	C	0.543772	0.089772	0.471652
90	C	0.538347	0.079017	0.653848
91	C	0.522682	0.050745	0.653669
92	C	0.516601	0.0406	0.471341
93	C	0.501271	0.013099	0.425606
94	C	0.488366	0.989934	0.386759
95	C	0.473051	0.962457	0.340227
96	C	0.447688	0.945537	0.405573
97	C	0.437498	0.91921	0.334154
98	C	0.455318	0.916634	0.215865
99	C	0.451785	0.893014	0.119004
100	C	0.468237	0.891013	0.984655
101	C	0.458544	0.864472	0.919577
102	C	0.434776	0.846397	0.004824
103	C	0.419271	0.817971	0.973782
104	C	0.396534	0.799556	0.069924
105	C	0.386688	0.773416	0
106	C	0.40162	0.771909	0.853538
107	S	0.427908	0.80249	0.800026
108	S	0.424731	0.862304	0.163015
109	S	0.48433	0.946638	0.194504
110	S	0.529686	0.065023	0.303027
111	S	0.556519	0.130305	0.208271
112	C	0.611243	0.208742	0.146316
113	H	0.586899	0.224792	0.761964
114	H	0.604597	0.181212	0.516095
115	H	0.583011	0.134536	0.680205
116	H	0.545113	0.090795	0.783141
117	H	0.516285	0.038612	0.781494
118	H	0.436793	0.951571	0.499939
119	H	0.417812	0.903033	0.368992
120	H	0.486594	0.907749	0.933164
121	H	0.468909	0.859231	0.814456
122	H	0.387374	0.804621	0.185434
123	H	0.398535	0.754553	0.77517
124	H	0.626612	0.213552	0.252855
125	C	0.772247	0.386502	0
126	C	0.782976	0.375317	0.882967
127	S	0.814792	0.38431	0.950728
128	C	0.814287	0.403364	0.137764
129	C	0.83663	0.417607	0.266505
130	C	0.835694	0.42644	0.448134
131	C	0.861238	0.440006	0.537806
132	C	0.881456	0.44161	0.422938
133	C	0.909494	0.453947	0.471652
134	C	0.920304	0.459268	0.653848
135	C	0.94873	0.471864	0.653669
136	C	0.958931	0.475926	0.471341
137	C	0.986581	0.488086	0.425606
138	C	0.009872	0.498337	0.386759
139	C	0.037498	0.510488	0.340227
140	C	0.054582	0.502156	0.405573
141	C	0.081032	0.518249	0.334154
142	C	0.083534	0.538501	0.215865
143	C	0.107239	0.558509	0.119004
144	C	0.109171	0.576831	0.984655
145	C	0.135833	0.593631	0.919577
146	C	0.154068	0.588031	0.004824
147	C	0.182647	0.600938	0.973782
148	C	0.201218	0.596701	0.069924
149	C	0.227479	0.612949	0
150	C	0.228923	0.629271	0.853538
151	S	0.198133	0.624922	0.800026
152	S	0.13816	0.562225	0.163015
153	S	0.053312	0.53743	0.194504
154	S	0.934379	0.464602	0.303027
155	S	0.868786	0.42625	0.208271
156	C	0.789874	0.402487	0.146316
157	H	0.773887	0.362346	0.761964
158	H	0.817514	0.423296	0.516095
159	H	0.864422	0.448335	0.680205
160	H	0.908462	0.45426	0.783141
161	H	0.960927	0.477592	0.781494
162	H	0.048579	0.485334	0.499939
163	H	0.097345	0.514813	0.368992
164	H	0.092304	0.578391	0.933164
165	H	0.141043	0.609136	0.814456
166	H	0.19618	0.582566	0.185434
167	H	0.246343	0.643486	0.77517
168	H	0.78498	0.412954	0.252855
