data_C138H66N6O6S18_2023-05-15_16:21:16
#******************************************
#
# CIF file created by Zeo++
# Zeo++ is an open source package to
# analyze microporous materials
#
#*******************************************

_cell_length_a		63.6254   
_cell_length_b		63.9238   
_cell_length_c		7   
_cell_angle_alpha		90   
_cell_angle_beta		90   
_cell_angle_gamma		119.796   

_symmetry_space_group_name_H-M		'P1'
_symmetry_Int_Tables_number		1
_symmetry_cell_setting		Monoclinic

loop_
_symmetry_equiv_pos_as_xyz
'+x,+y,+z'

loop_
_atom_site_label
_atom_site_type_symbol
_atom_site_fract_x
_atom_site_fract_y
_atom_site_fract_z
1	C	0.357699	0.671768	0.999995
2	O	0.37906	0.675519	0.999991
3	C	0.338369	0.646701	0.999998
4	C	0.342101	0.628225	0
5	N	0.366013	0.632546	0
6	C	0.313666	0.642252	3e-06
7	O	0.296295	0.620647	5e-06
8	C	0.30775	0.66153	6e-06
9	C	0.285017	0.656878	5e-06
10	N	0.266208	0.632296	0
11	C	0.328008	0.686396	4e-06
12	O	0.323308	0.703066	7e-06
13	C	0.35311	0.691962	0.999999
14	C	0.370969	0.714647	0.999998
15	N	0.367403	0.734784	0
16	H	0.327305	0.610238	1e-06
17	H	0.280235	0.670686	8e-06
18	H	0.389015	0.717886	0.999997
19	C	0.642301	0.328232	0.999995
20	O	0.62094	0.324481	0.999991
21	C	0.661631	0.353299	0.999998
22	C	0.657899	0.371775	0
23	N	0.633987	0.367454	0
24	C	0.686334	0.357748	3e-06
25	O	0.703705	0.379353	5e-06
26	C	0.69225	0.33847	6e-06
27	C	0.714983	0.343122	5e-06
28	N	0.733792	0.367704	0
29	C	0.671992	0.313604	4e-06
30	O	0.676692	0.296934	7e-06
31	C	0.64689	0.308038	0.999999
32	C	0.629031	0.285353	0.999998
33	N	0.632597	0.265216	0
34	H	0.672695	0.389762	1e-06
35	H	0.719765	0.329314	8e-06
36	H	0.610985	0.282114	0.999997
37	C	0.380591	0.618124	0
38	C	0.381334	0.611347	0.184328
39	S	0.395352	0.594505	0.19722
40	C	0.400521	0.596242	0.954278
41	C	0.412888	0.585153	0.860542
42	C	0.421254	0.58892	0.674244
43	C	0.432626	0.575244	0.624762
44	C	0.432911	0.561232	0.773958
45	C	0.44294	0.545267	0.769969
46	C	0.446382	0.534622	0.609726
47	C	0.45697	0.52007	0.652985
48	C	0.46151	0.520049	0.845449
49	C	0.47215	0.507405	0.945949
50	C	0.456243	0.484849	0.026038
51	C	0.464844	0.471374	0.12124
52	C	0.448577	0.448899	0.199822
53	C	0.457013	0.435376	0.293825
54	C	0.48184	0.444246	0.310444
55	C	0.498937	0.46688	0.233839
56	C	0.524322	0.476491	0.248084
57	C	0.534958	0.46382	0.348226
58	C	0.538969	0.463275	0.541149
59	C	0.549739	0.448869	0.583734
60	C	0.55387	0.438875	0.422547
61	C	0.564286	0.423247	0.417529
62	C	0.564384	0.408888	0.564667
63	C	0.576256	0.395698	0.514652
64	C	0.585218	0.400203	0.330095
65	C	0.598139	0.390049	0.231298
66	C	0.608212	0.39552	0.04982
67	C	0.619409	0.381876	0
68	C	0.617943	0.366325	0.140723
69	S	0.602828	0.368241	0.335598
70	S	0.578958	0.420596	0.221566
71	S	0.544353	0.447148	0.221012
72	C	0.540227	0.499057	0.168121
73	C	0.531628	0.512531	0.072909
74	C	0.547895	0.534997	0.99415
75	C	0.539462	0.548498	0.899845
76	C	0.514631	0.539621	0.883215
77	C	0.497536	0.517012	0.960188
78	C	0.50637	0.503374	0.056649
79	C	0.490105	0.48053	0.137524
80	S	0.452799	0.537358	0.971505
81	S	0.419017	0.564798	0.971076
82	C	0.391445	0.609615	0.86744
83	H	0.37444	0.615357	0.311965
84	H	0.419537	0.601066	0.575912
85	H	0.440417	0.57597	0.485632
86	H	0.441395	0.536936	0.466613
87	H	0.461065	0.510148	0.548023
88	H	0.436798	0.477763	0.013089
89	H	0.429131	0.441711	0.188029
90	H	0.44431	0.417903	0.354032
91	H	0.487762	0.433088	0.384214
92	H	0.534379	0.472736	0.646884
93	H	0.554376	0.446209	0.727098
94	H	0.556141	0.40757	0.702834
95	H	0.577977	0.383454	0.611937
96	H	0.607558	0.408734	0.956863
97	H	0.624897	0.353959	0.139731
98	H	0.559669	0.506149	0.181131
99	H	0.567342	0.542189	0.005911
100	H	0.552178	0.565952	0.839447
101	H	0.508697	0.550747	0.809132
102	H	0.392534	0.613088	0.715336
103	C	0.381803	0.763627	0
104	C	0.388595	0.771115	0.184328
105	S	0.405423	0.801811	0.19722
106	C	0.40366	0.805215	0.954278
107	C	0.414729	0.828545	0.860542
108	C	0.410917	0.833102	0.674244
109	C	0.424582	0.858017	0.624762
110	C	0.438631	0.872256	0.773958
111	C	0.454596	0.898116	0.769969
112	C	0.465255	0.912137	0.609726
113	C	0.479802	0.937146	0.652985
114	C	0.479805	0.941676	0.845449
115	C	0.492439	0.964838	0.945949
116	C	0.515119	0.971501	0.026038
117	C	0.528594	0.993463	0.12124
118	C	0.551195	0.999688	0.199822
119	C	0.564719	0.021535	0.293825
120	C	0.555724	0.037363	0.310444
121	C	0.53296	0.031804	0.233839
122	C	0.52322	0.047447	0.248084
123	C	0.53588	0.07063	0.348226
124	C	0.53641	0.075157	0.541149
125	C	0.55081	0.100203	0.583734
126	C	0.560813	0.114258	0.422547
127	C	0.57644	0.140169	0.417529
128	C	0.590836	0.154567	0.564667
129	C	0.604013	0.179495	0.514652
130	C	0.599459	0.18391	0.330095
131	C	0.609586	0.206856	0.231298
132	C	0.60406	0.211413	0.04982
133	C	0.617694	0.236124	0
134	C	0.633292	0.250155	0.140723
135	S	0.631433	0.233232	0.335598
136	S	0.579038	0.157382	0.221566
137	S	0.552558	0.096567	0.221012
138	C	0.500529	0.040771	0.168121
139	C	0.487055	0.018813	0.072909
140	C	0.464463	0.012596	0.99415
141	C	0.450961	0.990774	0.899845
142	C	0.459963	0.97495	0.883215
143	C	0.482702	0.980486	0.960188
144	C	0.496339	0.002843	0.056649
145	C	0.519311	0.009437	0.137524
146	S	0.462486	0.915786	0.971505
147	S	0.435112	0.854903	0.971076
148	C	0.39029	0.782883	0.86744
149	H	0.384602	0.760273	0.311965
150	H	0.398747	0.819301	0.575912
151	H	0.423822	0.865033	0.485632
152	H	0.462956	0.904879	0.466613
153	H	0.489733	0.951096	0.548023
154	H	0.522304	0.959243	0.013089
155	H	0.558482	0.987532	0.188029
156	H	0.58229	0.026318	0.354032
157	H	0.566887	0.054357	0.384214
158	H	0.526943	0.061176	0.646884
159	H	0.553458	0.107457	0.727098
160	H	0.592192	0.147691	0.702834
161	H	0.616282	0.193399	0.611937
162	H	0.590813	0.197604	0.956863
163	H	0.645662	0.269378	0.139731
164	H	0.493338	0.05302	0.181131
165	H	0.457172	0.02475	0.005911
166	H	0.433408	0.986022	0.839447
167	H	0.448832	0.957975	0.809132
168	H	0.386803	0.780506	0.715336
169	C	0.23723	0.617875	0
170	C	0.229694	0.617164	0.184328
171	S	0.198849	0.603309	0.19722
172	C	0.195443	0.598168	0.954278
173	C	0.172007	0.585929	0.860542
174	C	0.167453	0.577605	0.674244
175	C	0.142416	0.566365	0.624762
176	C	0.128083	0.566139	0.773958
177	C	0.102089	0.556243	0.769969
178	C	0.087987	0.552867	0.609726
179	C	0.062853	0.54241	0.652985
180	C	0.05831	0.537901	0.845449
181	C	0.035035	0.527384	0.945949
182	C	0.028262	0.543276	0.026038
183	C	0.006187	0.534789	0.12124
184	C	0.999852	0.551039	0.199822
185	C	0.977893	0.542715	0.293825
186	C	0.96206	0.518018	0.310444
187	C	0.967727	0.500942	0.233839
188	C	0.952082	0.475688	0.248084
189	C	0.928786	0.465175	0.348226
190	C	0.924245	0.461194	0.541149
191	C	0.899075	0.450555	0.583734
192	C	0.884941	0.446493	0.422547
193	C	0.858898	0.43621	0.417529
194	C	0.844403	0.436172	0.564667
195	C	0.819355	0.424434	0.514652
196	C	0.814947	0.415513	0.330095
197	C	0.791899	0.402721	0.231298
198	C	0.787353	0.392693	0.04982
199	C	0.762521	0.381627	0
200	C	0.748389	0.383146	0.140723
201	S	0.765364	0.398153	0.335598
202	S	0.841629	0.421648	0.221566
203	S	0.902713	0.455911	0.221012
204	C	0.958869	0.459798	0.168121
205	C	0.980941	0.468283	0.072909
206	C	0.987266	0.452034	0.99415
207	C	0.009202	0.460355	0.899845
208	C	0.02503	0.485055	0.883215
209	C	0.019386	0.502128	0.960188
210	C	0.996914	0.493409	0.056649
211	C	0.990209	0.50966	0.137524
212	S	0.08434	0.546482	0.971505
213	S	0.145496	0.579925	0.971076
214	C	0.217889	0.607128	0.86744
215	H	0.240582	0.623996	0.311965
216	H	0.18134	0.579259	0.575912
217	H	0.135385	0.558623	0.485632
218	H	0.095273	0.557812	0.466613
219	H	0.048825	0.538383	0.548023
220	H	0.040522	0.56262	0.013089
221	H	0.012011	0.570384	0.188029
222	H	0.973025	0.555405	0.354032
223	H	0.944975	0.512181	0.384214
224	H	0.938302	0.465714	0.646884
225	H	0.89179	0.44596	0.727098
226	H	0.851291	0.444365	0.702834
227	H	0.805365	0.422774	0.611937
228	H	0.801252	0.393288	0.956863
229	H	0.729065	0.376289	0.139731
230	H	0.946617	0.440457	0.181131
231	H	0.97511	0.432687	0.005911
232	H	0.014038	0.447652	0.839447
233	H	0.042095	0.490904	0.809132
234	H	0.220286	0.606032	0.715336
