data_C78H39N9O6S12_2023-05-11_15:49:23
#******************************************
#
# CIF file created by Zeo++
# Zeo++ is an open source package to
# analyze microporous materials
#
#*******************************************

_cell_length_a		38.4013   
_cell_length_b		38.6999   
_cell_length_c		7   
_cell_angle_alpha		90   
_cell_angle_beta		90   
_cell_angle_gamma		119.663   

_symmetry_space_group_name_H-M		'P1'
_symmetry_Int_Tables_number		1
_symmetry_cell_setting		Monoclinic

loop_
_symmetry_equiv_pos_as_xyz
'+x,+y,+z'

loop_
_atom_site_label
_atom_site_type_symbol
_atom_site_fract_x
_atom_site_fract_y
_atom_site_fract_z
1	C	0.37368	0.675081	0.999995
2	O	0.409055	0.681269	0.999991
3	C	0.341766	0.633732	0.999998
4	C	0.348031	0.603254	0
5	N	0.38763	0.610381	0
6	C	0.300856	0.626393	3e-06
7	O	0.272171	0.590753	5e-06
8	C	0.290968	0.658193	6e-06
9	C	0.253323	0.650519	5e-06
10	N	0.22227	0.60997	0
11	C	0.324422	0.699212	4e-06
12	O	0.316561	0.726711	7e-06
13	C	0.365988	0.708394	0.999999
14	C	0.395477	0.745815	0.999998
15	N	0.389478	0.779033	0
16	H	0.323597	0.573583	1e-06
17	H	0.245339	0.673296	8e-06
18	H	0.425361	0.751158	0.999997
19	C	0.62632	0.324919	0.999995
20	O	0.590945	0.318731	0.999991
21	C	0.658234	0.366268	0.999998
22	C	0.651969	0.396746	0
23	N	0.61237	0.389619	0
24	C	0.699144	0.373607	3e-06
25	O	0.727829	0.409247	5e-06
26	C	0.709032	0.341807	6e-06
27	C	0.746677	0.349481	5e-06
28	N	0.77773	0.39003	0
29	C	0.675578	0.300788	4e-06
30	O	0.683439	0.273289	7e-06
31	C	0.634012	0.291606	0.999999
32	C	0.604523	0.254185	0.999998
33	N	0.610522	0.220967	0
34	H	0.676403	0.426417	1e-06
35	H	0.754661	0.326704	8e-06
36	H	0.574639	0.248842	0.999997
37	C	0.411848	0.586591	0
38	C	0.39253	0.605566	0.071709
39	S	0.392708	0.605391	0.316191
40	C	0.418619	0.579939	0.324138
41	C	0.43136	0.567424	0.5147
42	C	0.422686	0.575943	0.693781
43	S	0.440429	0.558515	0.871848
44	C	0.459876	0.539414	0.711407
45	C	0.482785	0.516911	0.768027
46	C	0.490081	0.509744	0.952142
47	N	0.510798	0.489395	0.942991
48	C	0.517096	0.483209	0.755449
49	C	0.538061	0.462616	0.699839
50	C	0.545682	0.455128	0.51584
51	C	0.567295	0.433899	0.50997
52	C	0.58053	0.420898	0.322448
53	C	0.572631	0.428656	0.139896
54	C	0.588152	0.413409	0
55	C	0.607276	0.394625	0.076216
56	S	0.606455	0.395434	0.320579
57	C	0.57548	0.425861	0.690892
58	S	0.557298	0.443721	0.864575
59	C	0.499773	0.500225	0.644118
60	C	0.452961	0.546207	0.525509
61	C	0.426996	0.571711	0.143493
62	H	0.378367	0.619478	0.994317
63	H	0.406809	0.591539	0.731112
64	H	0.482455	0.517235	0.088881
65	H	0.520249	0.480111	0.056693
66	H	0.536064	0.464575	0.390741
67	H	0.556605	0.444396	0.107958
68	H	0.621637	0.380519	0.002148
69	H	0.591261	0.410361	0.731765
70	H	0.499436	0.500556	0.489702
71	H	0.462935	0.536409	0.403039
72	H	0.4431	0.555893	0.115348
73	C	0.413208	0.826612	0
74	C	0.394281	0.788662	0.071709
75	S	0.394456	0.789012	0.316191
76	C	0.419844	0.839916	0.324138
77	C	0.432327	0.864946	0.5147
78	C	0.42383	0.847907	0.693781
79	S	0.441214	0.882764	0.871848
80	C	0.460267	0.920967	0.711407
81	C	0.482714	0.965974	0.768027
82	C	0.489862	0.980307	0.952142
83	N	0.510161	0.021007	0.942991
84	C	0.516332	0.033379	0.755449
85	C	0.536873	0.074566	0.699839
86	C	0.544342	0.08954	0.51584
87	C	0.565517	0.131999	0.50997
88	C	0.578486	0.158001	0.322448
89	C	0.570748	0.142484	0.139896
90	C	0.585957	0.172978	0
91	C	0.604693	0.210546	0.076216
92	S	0.603886	0.208931	0.320579
93	C	0.573535	0.148078	0.690892
94	S	0.55572	0.112357	0.864575
95	C	0.499358	0.999347	0.644118
96	C	0.453492	0.907382	0.525509
97	C	0.428051	0.856372	0.143493
98	H	0.380404	0.760838	0.994317
99	H	0.408273	0.816715	0.731112
100	H	0.482391	0.965325	0.088881
101	H	0.519422	0.039575	0.056693
102	H	0.534919	0.070646	0.390741
103	H	0.555047	0.111002	0.107958
104	H	0.618764	0.238759	0.002148
105	H	0.588997	0.17908	0.731765
106	H	0.499028	0.998685	0.489702
107	H	0.463264	0.926977	0.403039
108	H	0.443829	0.888009	0.115348
109	C	0.174322	0.58618	0
110	C	0.212566	0.605156	0.071709
111	S	0.212213	0.604981	0.316191
112	C	0.160914	0.579529	0.324138
113	C	0.13569	0.567014	0.5147
114	C	0.152861	0.575534	0.693781
115	S	0.117734	0.558105	0.871848
116	C	0.079235	0.539003	0.711407
117	C	0.033879	0.516499	0.768027
118	C	0.019434	0.509333	0.952142
119	N	0.978419	0.488982	0.942991
120	C	0.96595	0.482796	0.755449
121	C	0.924444	0.462202	0.699839
122	C	0.909354	0.454715	0.51584
123	C	0.866565	0.433485	0.50997
124	C	0.840362	0.420485	0.322448
125	C	0.855999	0.428244	0.139896
126	C	0.825269	0.412997	0
127	C	0.787409	0.394213	0.076216
128	S	0.789037	0.395019	0.320579
129	C	0.850362	0.425445	0.690892
130	S	0.88636	0.443305	0.864575
131	C	0.000247	0.499812	0.644118
132	C	0.092925	0.545795	0.525509
133	C	0.14433	0.5713	0.143493
134	H	0.240606	0.619068	0.994317
135	H	0.184295	0.59113	0.731112
136	H	0.034532	0.516824	0.088881
137	H	0.959707	0.479698	0.056693
138	H	0.928395	0.464163	0.390741
139	H	0.887725	0.443986	0.107958
140	H	0.758977	0.380106	0.002148
141	H	0.819119	0.409943	0.731765
142	H	0.000913	0.500143	0.489702
143	H	0.073178	0.535997	0.403039
144	H	0.112448	0.555481	0.115348
