data_C123H87N9O6_2023-05-10_22:50:55
#******************************************
#
# CIF file created by Zeo++
# Zeo++ is an open source package to
# analyze microporous materials
#
#*******************************************

_cell_length_a		54.8146   
_cell_length_b		55.1131   
_cell_length_c		7   
_cell_angle_alpha		90   
_cell_angle_beta		90   
_cell_angle_gamma		119.763   

_symmetry_space_group_name_H-M		'P1'
_symmetry_Int_Tables_number		1
_symmetry_cell_setting		Monoclinic

loop_
_symmetry_equiv_pos_as_xyz
'+x,+y,+z'

loop_
_atom_site_label
_atom_site_type_symbol
_atom_site_fract_x
_atom_site_fract_y
_atom_site_fract_z
1	C	0.361611	0.672581	0.999995
2	O	0.386403	0.67693	0.999991
3	C	0.339194	0.643517	0.999998
4	C	0.34354	0.622094	0
5	N	0.371291	0.627104	0
6	C	0.310524	0.638358	3e-06
7	O	0.290377	0.613308	5e-06
8	C	0.303642	0.66071	6e-06
9	C	0.277258	0.655316	5e-06
10	N	0.255445	0.626815	0
11	C	0.327137	0.689542	4e-06
12	O	0.321669	0.708872	7e-06
13	C	0.35627	0.695997	0.999999
14	C	0.376982	0.7223	0.999998
15	N	0.372827	0.745648	0
16	H	0.32638	0.601239	1e-06
17	H	0.271697	0.671326	8e-06
18	H	0.397926	0.726055	0.999997
19	C	0.638389	0.327419	0.999995
20	O	0.613597	0.32307	0.999991
21	C	0.660806	0.356483	0.999998
22	C	0.65646	0.377906	0
23	N	0.628709	0.372896	0
24	C	0.689476	0.361642	3e-06
25	O	0.709623	0.386692	5e-06
26	C	0.696358	0.33929	6e-06
27	C	0.722742	0.344684	5e-06
28	N	0.744555	0.373185	0
29	C	0.672863	0.310458	4e-06
30	O	0.678331	0.291128	7e-06
31	C	0.64373	0.304003	0.999999
32	C	0.623018	0.2777	0.999998
33	N	0.627173	0.254352	0
34	H	0.67362	0.398761	1e-06
35	H	0.728303	0.328674	8e-06
36	H	0.602074	0.273945	0.999997
37	C	0.611776	0.389618	0
38	C	0.601359	0.401894	0.112682
39	C	0.606142	0.398159	0.312378
40	C	0.598243	0.40809	0.478422
41	C	0.584454	0.42256	0.482299
42	C	0.580228	0.428732	0.677813
43	C	0.566236	0.443883	0.738589
44	C	0.55944	0.446292	0.919724
45	C	0.544813	0.463134	0.928092
46	C	0.544157	0.470268	0.721228
47	C	0.531411	0.486674	0.653992
48	C	0.532138	0.494189	0.462646
49	C	0.519474	0.509633	0.404769
50	C	0.506111	0.517475	0.539806
51	C	0.491971	0.53321	0.491088
52	C	0.490026	0.543749	0.322151
53	C	0.473391	0.557594	0.3407
54	C	0.466181	0.571433	0.193712
55	C	0.479661	0.580239	0.025489
56	C	0.466903	0.593827	0.907348
57	C	0.443617	0.59135	0.034415
58	C	0.424641	0.601309	0.984411
59	C	0.426095	0.615185	0.822474
60	C	0.403074	0.6225	0.815926
61	C	0.388224	0.610382	0
62	C	0.400766	0.598414	0.093752
63	C	0.443871	0.578516	0.196984
64	C	0.465293	0.555332	0.524556
65	C	0.476302	0.539817	0.639316
66	N	0.505179	0.510685	0.726199
67	C	0.517674	0.495712	0.778002
68	C	0.55663	0.458946	0.617298
69	C	0.59181	0.417724	0.79383
70	C	0.60439	0.403542	0.680498
71	C	0.619704	0.383384	0.317127
72	C	0.624665	0.376377	0.118462
73	H	0.590912	0.41301	0.064794
74	H	0.577121	0.428927	0.359463
75	H	0.563416	0.437375	0.045125
76	H	0.556844	0.481902	0.015239
77	H	0.523635	0.450546	0.987011
78	H	0.542428	0.488218	0.354873
79	H	0.520176	0.515092	0.255306
80	H	0.498968	0.54232	0.188235
81	H	0.49743	0.578373	0.978681
82	H	0.482452	0.615686	0.878481
83	H	0.458795	0.582559	0.772568
84	H	0.441454	0.620757	0.710065
85	H	0.411905	0.645174	0.810734
86	H	0.389384	0.612789	0.692397
87	H	0.39436	0.588052	0.230226
88	H	0.429674	0.57365	0.31612
89	H	0.452755	0.563444	0.586439
90	H	0.458874	0.520856	0.700913
91	H	0.490237	0.553154	0.753001
92	H	0.51594	0.491062	0.929852
93	H	0.559459	0.460231	0.464452
94	H	0.592438	0.41865	0.947858
95	H	0.594209	0.3813	0.716446
96	H	0.627007	0.413398	0.707312
97	H	0.626402	0.377068	0.44357
98	H	0.614083	0.353715	0.097987
99	H	0.64717	0.38552	0.090487
100	C	0.609896	0.22062	0
101	C	0.597633	0.198067	0.112682
102	C	0.601355	0.206529	0.312378
103	C	0.591432	0.188808	0.478422
104	C	0.576983	0.160725	0.482299
105	C	0.570812	0.150389	0.677813
106	C	0.555682	0.121427	0.738589
107	C	0.553297	0.112286	0.919724
108	C	0.536473	0.081011	0.928092
109	C	0.529321	0.07326	0.721228
110	C	0.512925	0.044285	0.653992
111	C	0.505383	0.037527	0.462646
112	C	0.489952	0.009591	0.404769
113	C	0.48215	0.988528	0.539806
114	C	0.466434	0.958837	0.491088
115	C	0.455872	0.946418	0.322151
116	C	0.442065	0.916134	0.3407
117	C	0.428217	0.895207	0.193712
118	C	0.41932	0.899818	0.025489
119	C	0.405751	0.873635	0.907348
120	C	0.408346	0.852995	0.034415
121	C	0.398447	0.824255	0.984411
122	C	0.384521	0.811888	0.822474
123	C	0.377293	0.781766	0.815926
124	C	0.389519	0.779091	0
125	C	0.401464	0.803447	0.093752
126	C	0.421219	0.86602	0.196984
127	C	0.444371	0.91035	0.524556
128	C	0.459882	0.936714	0.639316
129	N	0.488966	0.994361	0.726199
130	C	0.503925	0.02166	0.778002
131	C	0.540618	0.096904	0.617298
132	C	0.5818	0.172837	0.79383
133	C	0.595965	0.199434	0.680498
134	C	0.616111	0.23469	0.317127
135	C	0.623116	0.246586	0.118462
136	H	0.586532	0.176638	0.064794
137	H	0.570632	0.147112	0.359463
138	H	0.562223	0.125106	0.045125
139	H	0.517591	0.07427	0.015239
140	H	0.549201	0.072526	0.987011
141	H	0.511324	0.053679	0.354873
142	H	0.484473	0.004855	0.255306
143	H	0.457263	0.956713	0.188235
144	H	0.421108	0.919306	0.978681
145	H	0.383751	0.867308	0.878481
146	H	0.417092	0.876805	0.772568
147	H	0.37886	0.821583	0.710065
148	H	0.354509	0.767963	0.810734
149	H	0.3871	0.777847	0.692397
150	H	0.411889	0.807403	0.230226
151	H	0.426167	0.856777	0.31612
152	H	0.436294	0.889835	0.586439
153	H	0.478984	0.938293	0.700913
154	H	0.446438	0.937268	0.753001
155	H	0.508598	0.024567	0.929852
156	H	0.539316	0.098433	0.464452
157	H	0.580868	0.172539	0.947858
158	H	0.618323	0.211468	0.716446
159	H	0.58597	0.212066	0.707312
160	H	0.622415	0.247623	0.44357
161	H	0.645898	0.258641	0.097987
162	H	0.613839	0.259818	0.090487
163	C	0.777891	0.389329	0
164	C	0.800572	0.399607	0.112682
165	C	0.792066	0.394878	0.312378
166	C	0.809889	0.402669	0.478422
167	C	0.838127	0.416282	0.482299
168	C	0.848523	0.420445	0.677813
169	C	0.877646	0.434257	0.738589
170	C	0.886826	0.440988	0.919724
171	C	0.918277	0.455421	0.928092
172	C	0.926086	0.456039	0.721228
173	C	0.955227	0.468607	0.653992
174	C	0.962042	0.46785	0.462646
175	C	0.990138	0.480343	0.404769
176	C	0.011302	0.493564	0.539806
177	C	0.041158	0.507519	0.491088
178	C	0.053666	0.509399	0.322151
179	C	0.084108	0.525839	0.3407
180	C	0.105165	0.532927	0.193712
181	C	0.100582	0.51951	0.025489
182	C	0.12691	0.532105	0.907348
183	C	0.147601	0.555221	0.034415
184	C	0.176476	0.574002	0.984411
185	C	0.188947	0.572493	0.822474
186	C	0.219196	0.595301	0.815926
187	C	0.22182	0.610093	0
188	C	0.197333	0.597706	0.093752
189	C	0.134474	0.555031	0.196984
190	C	0.089899	0.533885	0.524556
191	C	0.06338	0.523036	0.639316
192	N	0.005419	0.494521	0.726199
193	C	0.977964	0.482195	0.778002
194	C	0.902316	0.443716	0.617298
195	C	0.825954	0.409006	0.79383
196	C	0.799208	0.396591	0.680498
197	C	0.763749	0.381492	0.317127
198	C	0.751783	0.376603	0.118462
199	H	0.82212	0.409919	0.064794
200	H	0.851812	0.423528	0.359463
201	H	0.873925	0.437086	0.045125
202	H	0.925129	0.443395	0.015239
203	H	0.926728	0.476495	0.987011
204	H	0.945812	0.457669	0.354873
205	H	0.994914	0.47962	0.255306
206	H	0.043332	0.500534	0.188235
207	H	0.081026	0.501889	0.978681
208	H	0.133361	0.516573	0.878481
209	H	0.123676	0.540203	0.772568
210	H	0.179249	0.557227	0.710065
211	H	0.23315	0.58643	0.810734
212	H	0.22308	0.608931	0.692397
213	H	0.193315	0.604112	0.230226
214	H	0.143722	0.56914	0.31612
215	H	0.110515	0.546287	0.586439
216	H	0.061705	0.540418	0.700913
217	H	0.062888	0.509145	0.753001
218	H	0.975027	0.483938	0.929852
219	H	0.900788	0.440903	0.464452
220	H	0.826257	0.408378	0.947858
221	H	0.787031	0.406799	0.716446
222	H	0.786586	0.374103	0.707312
223	H	0.750746	0.374876	0.44357
224	H	0.739583	0.387211	0.097987
225	H	0.738555	0.354229	0.090487
