data_C114H54N6O6S24_2023-05-13_04:54:20
#******************************************
#
# CIF file created by Zeo++
# Zeo++ is an open source package to
# analyze microporous materials
#
#*******************************************

_cell_length_a		66.0477   
_cell_length_b		66.3461   
_cell_length_c		7   
_cell_angle_alpha		90   
_cell_angle_beta		90   
_cell_angle_gamma		119.804   

_symmetry_space_group_name_H-M		'P1'
_symmetry_Int_Tables_number		1
_symmetry_cell_setting		Monoclinic

loop_
_symmetry_equiv_pos_as_xyz
'+x,+y,+z'

loop_
_atom_site_label
_atom_site_type_symbol
_atom_site_fract_x
_atom_site_fract_y
_atom_site_fract_z
1	C	0.356806	0.671582	0.999995
2	O	0.377384	0.675196	0.999991
3	C	0.338182	0.647429	0.999998
4	C	0.341774	0.629626	0
5	N	0.364809	0.633789	0
6	C	0.314384	0.643142	3e-06
7	O	0.297647	0.622324	5e-06
8	C	0.308688	0.661717	6e-06
9	C	0.286787	0.657234	5e-06
10	N	0.268665	0.633549	0
11	C	0.328206	0.685677	4e-06
12	O	0.323681	0.70174	7e-06
13	C	0.352389	0.69104	0.999999
14	C	0.369596	0.712899	0.999998
15	N	0.366163	0.732302	0
16	H	0.327518	0.612295	1e-06
17	H	0.282183	0.670539	8e-06
18	H	0.38698	0.71602	0.999997
19	C	0.643194	0.328418	0.999995
20	O	0.622616	0.324804	0.999991
21	C	0.661818	0.352571	0.999998
22	C	0.658226	0.370374	0
23	N	0.635191	0.366211	0
24	C	0.685616	0.356858	3e-06
25	O	0.702353	0.377676	5e-06
26	C	0.691312	0.338283	6e-06
27	C	0.713213	0.342766	5e-06
28	N	0.731335	0.366451	0
29	C	0.671794	0.314323	4e-06
30	O	0.676319	0.29826	7e-06
31	C	0.647611	0.30896	0.999999
32	C	0.630404	0.287101	0.999998
33	N	0.633837	0.267698	0
34	H	0.672482	0.387705	1e-06
35	H	0.717817	0.329461	8e-06
36	H	0.61302	0.28398	0.999997
37	C	0.621149	0.380107	0
38	C	0.609736	0.390393	0.082971
39	C	0.601018	0.399785	0.942401
40	C	0.58706	0.412811	0.986898
41	C	0.57869	0.4218	0.851036
42	C	0.56677	0.432623	0.934682
43	C	0.566299	0.431687	0.132392
44	C	0.555846	0.440841	0.263516
45	C	0.555271	0.439809	0.460839
46	C	0.543442	0.450741	0.543893
47	C	0.535042	0.460031	0.409518
48	C	0.522384	0.472304	0.447083
49	C	0.518367	0.47898	0.623837
50	C	0.505323	0.490809	0.612646
51	C	0.499532	0.493122	0.427346
52	C	0.486354	0.504143	0.367595
53	C	0.47168	0.508385	0.480167
54	C	0.461458	0.519787	0.379031
55	C	0.468492	0.524243	0.190205
56	C	0.461783	0.535539	0.046147
57	C	0.468673	0.539825	0.856911
58	C	0.458604	0.551393	0.75607
59	C	0.444159	0.555904	0.869244
60	C	0.431212	0.56719	0.810021
61	C	0.425673	0.569874	0.624469
62	C	0.412847	0.581946	0.613426
63	C	0.408941	0.588257	0.791027
64	C	0.395302	0.601753	0.829054
65	C	0.385749	0.608647	0.685331
66	S	0.372046	0.622934	0.772604
67	C	0.378851	0.619893	0
68	C	0.391226	0.608368	0.013248
69	S	0.420745	0.579662	0.967875
70	S	0.443045	0.545765	0.09666
71	S	0.487454	0.514276	0.140271
72	S	0.509938	0.480558	0.270616
73	S	0.541857	0.455197	0.183787
74	S	0.580491	0.41747	0.212266
75	C	0.60631	0.396091	0.759509
76	S	0.621626	0.381452	0.758404
77	H	0.607725	0.391161	0.235851
78	H	0.580793	0.420882	0.698511
79	H	0.558947	0.440719	0.851035
80	H	0.56295	0.431599	0.544748
81	H	0.541298	0.451557	0.696543
82	H	0.524529	0.475725	0.757322
83	H	0.500663	0.49744	0.736426
84	H	0.468143	0.503473	0.629171
85	H	0.449454	0.524422	0.44439
86	H	0.480484	0.53497	0.791081
87	H	0.462089	0.556222	0.606838
88	H	0.430401	0.563358	0.50033
89	H	0.406942	0.585595	0.480416
90	H	0.38596	0.606157	0.53295
91	H	0.397055	0.604857	0.147331
92	H	0.602095	0.401131	0.625071
93	C	0.619476	0.239666	0
94	C	0.609209	0.21808	0.082971
95	C	0.599828	0.200065	0.942401
96	C	0.586823	0.173221	0.986898
97	C	0.577845	0.155953	0.851036
98	C	0.567042	0.13333	0.934682
99	C	0.567982	0.133794	0.132392
100	C	0.558846	0.114291	0.263516
101	C	0.559883	0.114747	0.460839
102	C	0.54897	0.092106	0.543893
103	C	0.53969	0.074507	0.409518
104	C	0.527435	0.049706	0.447083
105	C	0.520759	0.039066	0.623837
106	C	0.508951	0.014324	0.612646
107	C	0.506655	0.006266	0.427346
108	C	0.495659	0.982196	0.367595
109	C	0.491464	0.963392	0.480167
110	C	0.480073	0.941878	0.379031
111	C	0.475578	0.944429	0.190205
112	C	0.464279	0.926511	0.046147
113	C	0.459956	0.929088	0.856911
114	C	0.448398	0.907562	0.75607
115	C	0.443933	0.888717	0.869244
116	C	0.432669	0.864611	0.810021
117	C	0.43	0.856435	0.624469
118	C	0.417948	0.831668	0.613426
119	C	0.411637	0.821501	0.791027
120	C	0.398161	0.794508	0.829054
121	C	0.391286	0.778149	0.685331
122	S	0.377017	0.750304	0.772604
123	C	0.380039	0.760094	0
124	C	0.391545	0.783869	0.013248
125	S	0.420207	0.84179	0.967875
126	S	0.454101	0.897709	0.09666
127	S	0.485495	0.973196	0.140271
128	S	0.51921	0.029119	0.270616
129	S	0.544509	0.086093	0.183787
130	S	0.582179	0.162055	0.212266
131	C	0.603511	0.209002	0.759509
132	S	0.618126	0.2388	0.758404
133	H	0.608448	0.215319	0.235851
134	H	0.578757	0.158957	0.698511
135	H	0.558956	0.117493	0.851035
136	H	0.568084	0.130554	0.544748
137	H	0.548161	0.089163	0.696543
138	H	0.523997	0.048429	0.757322
139	H	0.502321	0.003089	0.736426
140	H	0.496401	0.964769	0.629171
141	H	0.475473	0.925335	0.44439
142	H	0.464776	0.945659	0.791081
143	H	0.443543	0.906215	0.606838
144	H	0.436514	0.867623	0.50033
145	H	0.414313	0.822166	0.480416
146	H	0.393782	0.780839	0.53295
147	H	0.395042	0.793158	0.147331
148	H	0.598474	0.199793	0.625071
149	C	0.759012	0.379867	0
150	C	0.780693	0.391166	0.082971
151	C	0.798792	0.39979	0.942401
152	C	0.825755	0.413607	0.986898
153	C	0.843102	0.421887	0.851036
154	C	0.865826	0.433688	0.934682
155	C	0.865356	0.434159	0.132392
156	C	0.884945	0.444508	0.263516
157	C	0.884484	0.445083	0.460839
158	C	0.907225	0.456793	0.543893
159	C	0.924906	0.465103	0.409518
160	C	0.949818	0.47763	0.447083
161	C	0.960512	0.481594	0.623837
162	C	0.985363	0.494507	0.612646
163	C	0.993451	0.500252	0.427346
164	C	0.017625	0.513301	0.367595
165	C	0.036494	0.527864	0.480167
166	C	0.058107	0.537975	0.379031
167	C	0.055568	0.530968	0.190205
168	C	0.073575	0.53759	0.046147
169	C	0.071009	0.530727	0.856911
170	C	0.092636	0.540686	0.75607
171	C	0.111546	0.55502	0.869244
172	C	0.135757	0.567838	0.810021
173	C	0.143965	0.573331	0.624469
174	C	0.168843	0.586027	0.613426
175	C	0.17906	0.589882	0.791027
176	C	0.206175	0.603379	0.829054
177	C	0.222602	0.612843	0.685331
178	S	0.250575	0.626402	0.772604
179	C	0.240748	0.619653	0
180	C	0.216867	0.607403	0.013248
181	S	0.158686	0.578188	0.967875
182	S	0.102491	0.556166	0.09666
183	S	0.026688	0.512168	0.140271
184	S	0.97049	0.489963	0.270616
185	S	0.913272	0.45835	0.183787
186	S	0.836968	0.420115	0.212266
187	C	0.789817	0.394547	0.759509
188	S	0.759886	0.379388	0.758404
189	H	0.783465	0.39316	0.235851
190	H	0.840088	0.419801	0.698511
191	H	0.881735	0.441428	0.851035
192	H	0.868604	0.437486	0.544748
193	H	0.910179	0.45892	0.696543
194	H	0.951112	0.475485	0.757322
195	H	0.996653	0.499111	0.736426
196	H	0.035094	0.531398	0.629171
197	H	0.07471	0.549882	0.44439
198	H	0.054378	0.519011	0.791081
199	H	0.094005	0.537203	0.606838
200	H	0.132723	0.568659	0.50033
201	H	0.178383	0.591879	0.480416
202	H	0.219896	0.612644	0.53295
203	H	0.207541	0.601626	0.147331
204	H	0.799069	0.398715	0.625071
