data_C72H36N12O6S6_2023-05-13_01:05:27
#******************************************
#
# CIF file created by Zeo++
# Zeo++ is an open source package to
# analyze microporous materials
#
#*******************************************

_cell_length_a		43.9806   
_cell_length_b		44.2792   
_cell_length_c		7   
_cell_angle_alpha		90   
_cell_angle_beta		90   
_cell_angle_gamma		119.706   

_symmetry_space_group_name_H-M		'P1'
_symmetry_Int_Tables_number		1
_symmetry_cell_setting		Monoclinic

loop_
_symmetry_equiv_pos_as_xyz
'+x,+y,+z'

loop_
_atom_site_label
_atom_site_type_symbol
_atom_site_fract_x
_atom_site_fract_y
_atom_site_fract_z
1	C	0.368568	0.674024	0.999995
2	O	0.39946	0.679434	0.999991
3	C	0.340671	0.63787	0.999998
4	C	0.346119	0.61122	0
5	N	0.380699	0.617452	0
6	C	0.304946	0.631452	3e-06
7	O	0.279873	0.600291	5e-06
8	C	0.296336	0.659257	6e-06
9	C	0.263461	0.652547	5e-06
10	N	0.236316	0.617093	0
11	C	0.325577	0.695123	4e-06
12	O	0.318734	0.719168	7e-06
13	C	0.361877	0.703152	0.999999
14	C	0.387653	0.735871	0.999998
15	N	0.382441	0.764916	0
16	H	0.324762	0.585277	1e-06
17	H	0.256507	0.672463	8e-06
18	H	0.41375	0.740544	0.999997
19	C	0.631432	0.325976	0.999995
20	O	0.60054	0.320566	0.999991
21	C	0.659329	0.36213	0.999998
22	C	0.653881	0.38878	0
23	N	0.619301	0.382548	0
24	C	0.695054	0.368548	3e-06
25	O	0.720127	0.399709	5e-06
26	C	0.703664	0.340743	6e-06
27	C	0.736539	0.347453	5e-06
28	N	0.763684	0.382907	0
29	C	0.674423	0.304877	4e-06
30	O	0.681266	0.280832	7e-06
31	C	0.638123	0.296848	0.999999
32	C	0.612347	0.264129	0.999998
33	N	0.617559	0.235084	0
34	H	0.675238	0.414723	1e-06
35	H	0.743493	0.327537	8e-06
36	H	0.58625	0.259456	0.999997
37	C	0.598172	0.403349	0
38	C	0.595009	0.406462	0.192403
39	C	0.576487	0.424697	0.230998
40	C	0.56612	0.434904	0.067082
41	C	0.546642	0.454081	0.049809
42	C	0.535832	0.46471	0.211835
43	C	0.517427	0.482831	0.194392
44	C	0.509703	0.490447	0.013829
45	C	0.490298	0.509554	0.986173
46	C	0.482573	0.517169	0.80561
47	C	0.464168	0.53529	0.788167
48	C	0.45336	0.545921	0.950193
49	C	0.433882	0.565098	0.93292
50	C	0.42352	0.575311	0.769003
51	C	0.404998	0.593544	0.807597
52	C	0.401828	0.596651	0
53	S	0.420449	0.578309	0.132497
54	C	0.462284	0.537126	0.124475
55	N	0.480141	0.519544	0.146181
56	N	0.519862	0.480459	0.853821
57	C	0.537719	0.462878	0.875527
58	S	0.579546	0.421686	0.867504
59	H	0.605214	0.396415	0.300784
60	H	0.571189	0.429914	0.374685
61	H	0.541362	0.459254	0.354941
62	H	0.509247	0.490875	0.321979
63	H	0.490752	0.509124	0.678024
64	H	0.458636	0.540744	0.64506
65	H	0.428825	0.570099	0.625316
66	H	0.394796	0.603595	0.699215
67	H	0.455306	0.543988	0.260134
68	H	0.544699	0.456017	0.739868
69	C	0.596075	0.193123	0
70	C	0.592968	0.186895	0.192403
71	C	0.574774	0.150426	0.230998
72	C	0.564589	0.130012	0.067082
73	C	0.545454	0.091659	0.049809
74	C	0.534848	0.070387	0.211835
75	C	0.516767	0.034146	0.194392
76	C	0.509167	0.018926	0.013829
77	C	0.490103	0.980715	0.986173
78	C	0.482504	0.965495	0.80561
79	C	0.464423	0.929254	0.788167
80	C	0.453815	0.907982	0.950193
81	C	0.43468	0.869629	0.93292
82	C	0.42449	0.849215	0.769003
83	C	0.406296	0.812746	0.807597
84	C	0.403196	0.806518	0
85	S	0.421498	0.843192	0.132497
86	C	0.462591	0.925563	0.124475
87	N	0.480135	0.960726	0.146181
88	N	0.519134	0.038915	0.853821
89	C	0.536677	0.074078	0.875527
90	S	0.577779	0.156449	0.867504
91	H	0.602994	0.206989	0.300784
92	H	0.569568	0.139992	0.374685
93	H	0.540293	0.081288	0.354941
94	H	0.508741	0.018049	0.321979
95	H	0.490532	0.981592	0.678024
96	H	0.45898	0.918353	0.64506
97	H	0.42969	0.859649	0.625316
98	H	0.396268	0.792652	0.699215
99	H	0.455744	0.911831	0.260134
100	H	0.543522	0.08781	0.739868
101	C	0.805208	0.402989	0
102	C	0.811479	0.406104	0.192403
103	C	0.848195	0.424338	0.230998
104	C	0.868748	0.434545	0.067082
105	C	0.90736	0.453721	0.049809
106	C	0.928776	0.464364	0.211835
107	C	0.965263	0.482484	0.194392
108	C	0.980586	0.490088	0.013829
109	C	0.019056	0.509192	0.986173
110	C	0.034379	0.516797	0.80561
111	C	0.070865	0.534917	0.788167
112	C	0.092281	0.545558	0.950193
113	C	0.130894	0.564734	0.93292
114	C	0.151446	0.574935	0.769003
115	C	0.188162	0.593171	0.807597
116	C	0.194433	0.596292	0
117	S	0.15751	0.577959	0.132497
118	C	0.074581	0.536772	0.124475
119	N	0.03918	0.519192	0.146181
120	N	0.960461	0.480087	0.853821
121	C	0.92506	0.462505	0.875527
122	S	0.842132	0.421327	0.867504
123	H	0.791249	0.396057	0.300784
124	H	0.858699	0.429555	0.374685
125	H	0.917801	0.458919	0.354941
126	H	0.981469	0.490537	0.321979
127	H	0.018172	0.508745	0.678024
128	H	0.08184	0.540364	0.64506
129	H	0.140942	0.569713	0.625316
130	H	0.208392	0.603214	0.699215
131	H	0.088406	0.543642	0.260134
132	H	0.911236	0.455634	0.739868
