data_C102H51N9O6S18_2023-05-14_23:35:07
#******************************************
#
# CIF file created by Zeo++
# Zeo++ is an open source package to
# analyze microporous materials
#
#*******************************************

_cell_length_a		57.1795   
_cell_length_b		57.4779   
_cell_length_c		7   
_cell_angle_alpha		90   
_cell_angle_beta		90   
_cell_angle_gamma		119.773   

_symmetry_space_group_name_H-M		'P1'
_symmetry_Int_Tables_number		1
_symmetry_cell_setting		Monoclinic

loop_
_symmetry_equiv_pos_as_xyz
'+x,+y,+z'

loop_
_atom_site_label
_atom_site_type_symbol
_atom_site_fract_x
_atom_site_fract_y
_atom_site_fract_z
1	C	0.360443	0.672338	0.999995
2	O	0.38421	0.676509	0.999991
3	C	0.338947	0.644467	0.999998
4	C	0.34311	0.623924	0
5	N	0.369714	0.628728	0
6	C	0.311462	0.63952	3e-06
7	O	0.292144	0.615498	5e-06
8	C	0.304869	0.660955	6e-06
9	C	0.279575	0.655782	5e-06
10	N	0.258659	0.628451	0
11	C	0.327398	0.688603	4e-06
12	O	0.322159	0.707139	7e-06
13	C	0.355327	0.694793	0.999999
14	C	0.375187	0.720016	0.999998
15	N	0.371209	0.742406	0
16	H	0.326655	0.603925	1e-06
17	H	0.274247	0.671135	8e-06
18	H	0.395265	0.723618	0.999997
19	C	0.639557	0.327662	0.999995
20	O	0.61579	0.323491	0.999991
21	C	0.661053	0.355533	0.999998
22	C	0.65689	0.376076	0
23	N	0.630286	0.371272	0
24	C	0.688538	0.36048	3e-06
25	O	0.707856	0.384502	5e-06
26	C	0.695131	0.339045	6e-06
27	C	0.720425	0.344218	5e-06
28	N	0.741341	0.371549	0
29	C	0.672602	0.311397	4e-06
30	O	0.677841	0.292861	7e-06
31	C	0.644673	0.305207	0.999999
32	C	0.624813	0.279984	0.999998
33	N	0.628791	0.257594	0
34	H	0.673345	0.396075	1e-06
35	H	0.725753	0.328865	8e-06
36	H	0.604735	0.276382	0.999997
37	C	0.614057	0.387307	0
38	C	0.600341	0.400859	0.03328
39	C	0.592827	0.408281	0.858542
40	C	0.576871	0.424045	0.843391
41	C	0.56968	0.431149	0.674926
42	C	0.555371	0.445287	0.706916
43	C	0.551933	0.448686	0.898813
44	C	0.538329	0.462128	0.978288
45	C	0.526253	0.474061	0.876981
46	C	0.51455	0.485625	0.997122
47	C	0.517952	0.482262	0.18765
48	C	0.507368	0.492719	0.354036
49	C	0.510477	0.489645	0.545558
50	N	0.498524	0.501456	0.645642
51	C	0.487653	0.512198	0.522012
52	C	0.473756	0.525929	0.585686
53	C	0.469009	0.530619	0.771196
54	C	0.454541	0.544915	0.781301
55	C	0.448399	0.550985	0.603554
56	C	0.433928	0.565283	0.564875
57	C	0.423574	0.575515	0.698684
58	C	0.410367	0.588565	0.614788
59	C	0.410921	0.588015	0.418383
60	C	0.398175	0.600609	0.282363
61	C	0.384977	0.613651	0.348283
62	S	0.373404	0.625084	0.165236
63	C	0.385943	0.612693	0
64	C	0.398705	0.600084	0.078222
65	S	0.427235	0.571894	0.337978
66	S	0.460512	0.539016	0.427261
67	C	0.493031	0.506886	0.339053
68	S	0.535069	0.465347	0.219768
69	S	0.566369	0.434425	0.036743
70	C	0.60129	0.399918	0.701396
71	S	0.618097	0.383312	0.76493
72	H	0.595914	0.405235	0.17484
73	H	0.57423	0.426651	0.534233
74	H	0.548008	0.45256	0.592111
75	H	0.525667	0.474642	0.722539
76	H	0.504231	0.495822	0.944292
77	H	0.520093	0.480143	0.619958
78	H	0.497845	0.502126	0.789624
79	H	0.475447	0.524258	0.8964
80	H	0.449011	0.55038	0.914932
81	H	0.425248	0.573862	0.851566
82	H	0.401078	0.597744	0.69717
83	H	0.38137	0.617217	0.494024
84	H	0.407922	0.590975	0.994111
85	H	0.487194	0.512654	0.208179
86	H	0.598622	0.402551	0.551686
87	C	0.612223	0.225247	0
88	C	0.598694	0.198144	0.03328
89	C	0.591285	0.183298	0.858542
90	C	0.575547	0.151768	0.843391
91	C	0.568455	0.137559	0.674926
92	C	0.554341	0.109284	0.706916
93	C	0.550948	0.102487	0.898813
94	C	0.537528	0.075603	0.978288
95	C	0.525615	0.05174	0.876981
96	C	0.514071	0.028612	0.997122
97	C	0.517429	0.035337	0.18765
98	C	0.506989	0.014423	0.354036
99	C	0.510058	0.020569	0.545558
100	N	0.498267	0.996947	0.645642
101	C	0.487542	0.975463	0.522012
102	C	0.473835	0.948003	0.585686
103	C	0.469152	0.938622	0.771196
104	C	0.45488	0.910031	0.781301
105	C	0.448821	0.897892	0.603554
106	C	0.434546	0.869296	0.564875
107	C	0.424332	0.848835	0.698684
108	C	0.411304	0.822736	0.614788
109	C	0.411853	0.823833	0.418383
110	C	0.39928	0.798646	0.282363
111	C	0.38626	0.772563	0.348283
112	S	0.374846	0.749695	0.165236
113	C	0.387217	0.774476	0
114	C	0.399805	0.799694	0.078222
115	S	0.427947	0.856073	0.337978
116	S	0.460769	0.92183	0.427261
117	C	0.492846	0.98609	0.339053
118	S	0.534315	0.069164	0.219768
119	S	0.565185	0.131012	0.036743
120	C	0.599634	0.200022	0.701396
121	S	0.616212	0.233235	0.76493
122	H	0.594326	0.189393	0.17484
123	H	0.572946	0.146553	0.534233
124	H	0.54708	0.094735	0.592111
125	H	0.525035	0.050579	0.722539
126	H	0.503891	0.00822	0.944292
127	H	0.519544	0.039571	0.619958
128	H	0.497598	0.995606	0.789624
129	H	0.475502	0.951344	0.8964
130	H	0.449425	0.899102	0.914932
131	H	0.425982	0.852142	0.851566
132	H	0.40214	0.804379	0.69717
133	H	0.3827	0.765433	0.494024
134	H	0.408898	0.81791	0.994111
135	H	0.487087	0.974555	0.208179
136	H	0.597005	0.194753	0.551686
137	C	0.773302	0.38703	0
138	C	0.800546	0.400582	0.03328
139	C	0.81547	0.408006	0.858542
140	C	0.847164	0.423771	0.843391
141	C	0.861447	0.430877	0.674926
142	C	0.88987	0.445014	0.706916
143	C	0.896701	0.448411	0.898813
144	C	0.923725	0.461853	0.978288
145	C	0.947713	0.473783	0.876981
146	C	0.970961	0.485347	0.997122
147	C	0.964201	0.481985	0.18765
148	C	0.985224	0.492443	0.354036
149	C	0.979047	0.489371	0.545558
150	N	0.002791	0.501182	0.645642
151	C	0.024387	0.511923	0.522012
152	C	0.051991	0.525653	0.585686
153	C	0.06142	0.530343	0.771196
154	C	0.09016	0.544638	0.781301
155	C	0.102362	0.550707	0.603554
156	C	0.131107	0.565005	0.564875
157	C	0.151676	0.575235	0.698684
158	C	0.17791	0.588284	0.614788
159	C	0.176807	0.587736	0.418383
160	C	0.202126	0.60033	0.282363
161	C	0.228345	0.613371	0.348283
162	S	0.251332	0.624805	0.165236
163	C	0.226422	0.612416	0
164	C	0.201072	0.599807	0.078222
165	S	0.144399	0.571617	0.337978
166	S	0.0783	0.538738	0.427261
167	C	0.013705	0.506608	0.339053
168	S	0.930198	0.465073	0.219768
169	S	0.868028	0.434148	0.036743
170	C	0.798658	0.399645	0.701396
171	S	0.765273	0.383038	0.76493
172	H	0.809342	0.404956	0.17484
173	H	0.852406	0.42638	0.534233
174	H	0.904493	0.452289	0.592111
175	H	0.94888	0.474363	0.722539
176	H	0.99146	0.495543	0.944292
177	H	0.959945	0.47987	0.619958
178	H	0.004139	0.501852	0.789624
179	H	0.048632	0.523982	0.8964
180	H	0.101146	0.550102	0.914932
181	H	0.148351	0.57358	0.851566
182	H	0.196363	0.597462	0.69717
183	H	0.235512	0.616934	0.494024
184	H	0.182762	0.5907	0.994111
185	H	0.0253	0.512376	0.208179
186	H	0.803954	0.40228	0.551686
