data_C60H36N6O6_2023-05-11_05:02:25
#******************************************
#
# CIF file created by Zeo++
# Zeo++ is an open source package to
# analyze microporous materials
#
#*******************************************

_cell_length_a		34.6405   
_cell_length_b		34.9391   
_cell_length_c		7   
_cell_angle_alpha		90   
_cell_angle_beta		90   
_cell_angle_gamma		119.627   

_symmetry_space_group_name_H-M		'P1'
_symmetry_Int_Tables_number		1
_symmetry_cell_setting		Monoclinic

loop_
_symmetry_equiv_pos_as_xyz
'+x,+y,+z'

loop_
_atom_site_label
_atom_site_type_symbol
_atom_site_fract_x
_atom_site_fract_y
_atom_site_fract_z
1	C	0.378053	0.675984	0.999995
2	O	0.417264	0.682835	0.999991
3	C	0.342708	0.6302	0.999998
4	C	0.349679	0.596453	0
5	N	0.39357	0.604345	0
6	C	0.297363	0.622074	3e-06
7	O	0.265593	0.582613	5e-06
8	C	0.286376	0.657284	6e-06
9	C	0.244649	0.648787	5e-06
10	N	0.210258	0.60389	0
11	C	0.323428	0.702702	4e-06
12	O	0.314691	0.733151	7e-06
13	C	0.369499	0.712869	0.999999
14	C	0.402159	0.754303	0.999998
15	N	0.395482	0.791083	0
16	H	0.322615	0.563601	1e-06
17	H	0.23578	0.674007	8e-06
18	H	0.435283	0.760219	0.999997
19	C	0.621947	0.324016	0.999995
20	O	0.582736	0.317165	0.999991
21	C	0.657292	0.3698	0.999998
22	C	0.650321	0.403547	0
23	N	0.60643	0.395655	0
24	C	0.702637	0.377926	3e-06
25	O	0.734407	0.417387	5e-06
26	C	0.713624	0.342716	6e-06
27	C	0.755351	0.351213	5e-06
28	N	0.789742	0.39611	0
29	C	0.676572	0.297298	4e-06
30	O	0.685309	0.266849	7e-06
31	C	0.630501	0.287131	0.999999
32	C	0.597841	0.245697	0.999998
33	N	0.604518	0.208917	0
34	H	0.677385	0.436399	1e-06
35	H	0.76422	0.325993	8e-06
36	H	0.564717	0.239781	0.999997
37	C	0.579563	0.421996	0
38	C	0.569903	0.431473	0.819134
39	C	0.54651	0.454407	0.800876
40	C	0.532498	0.468138	0.962412
41	C	0.507938	0.492216	0.931715
42	C	0.492063	0.507785	0.068286
43	C	0.467502	0.531863	0.037589
44	C	0.453493	0.545596	0.199124
45	C	0.4301	0.56853	0.180866
46	C	0.420437	0.578004	0
47	C	0.433949	0.564759	0.837845
48	C	0.457355	0.541812	0.856788
49	C	0.542643	0.458186	0.143213
50	C	0.566049	0.435239	0.162155
51	H	0.580317	0.421267	0.691645
52	H	0.539359	0.461421	0.657809
53	H	0.503033	0.497019	0.78227
54	H	0.496968	0.502983	0.217731
55	H	0.460645	0.538584	0.342192
56	H	0.419688	0.578738	0.308355
57	H	0.426525	0.572038	0.696005
58	H	0.467318	0.532046	0.726876
59	H	0.532679	0.46795	0.273125
60	H	0.573471	0.427958	0.303995
61	C	0.577324	0.155781	0
62	C	0.567874	0.136834	0.819134
63	C	0.545003	0.090965	0.800876
64	C	0.53131	0.063497	0.962412
65	C	0.5073	0.015339	0.931715
66	C	0.491774	0.984206	0.068286
67	C	0.467763	0.936049	0.037589
68	C	0.454067	0.90858	0.199124
69	C	0.431197	0.862712	0.180866
70	C	0.42175	0.843764	0
71	C	0.434958	0.870257	0.837845
72	C	0.457841	0.916152	0.856788
73	C	0.541234	0.083394	0.143213
74	C	0.564117	0.129288	0.162155
75	H	0.57805	0.157249	0.691645
76	H	0.538008	0.07694	0.657809
77	H	0.50251	0.005728	0.78227
78	H	0.496563	0.993818	0.217731
79	H	0.461061	0.922605	0.342192
80	H	0.421018	0.842297	0.308355
81	H	0.4277	0.8557	0.696005
82	H	0.46758	0.935684	0.726876
83	H	0.531498	0.063861	0.273125
84	H	0.571378	0.143846	0.303995
85	C	0.842423	0.421541	0
86	C	0.861534	0.431011	0.819134
87	C	0.907797	0.453946	0.800876
88	C	0.935501	0.467683	0.962412
89	C	0.984073	0.491763	0.931715
90	C	0.015474	0.507326	0.068286
91	C	0.064045	0.531406	0.037589
92	C	0.09175	0.545141	0.199124
93	C	0.138013	0.568075	0.180866
94	C	0.157123	0.577549	0
95	C	0.130402	0.564302	0.837845
96	C	0.084113	0.541354	0.856788
97	C	0.915433	0.457737	0.143213
98	C	0.869144	0.43479	0.162155
99	H	0.840943	0.420802	0.691645
100	H	0.921942	0.460956	0.657809
101	H	0.993767	0.496571	0.78227
102	H	0.00578	0.502517	0.217731
103	H	0.077604	0.538128	0.342192
104	H	0.158604	0.578283	0.308355
105	H	0.145085	0.57158	0.696005
106	H	0.064413	0.531587	0.726876
107	H	0.935133	0.467506	0.273125
108	H	0.854461	0.427513	0.303995
