data_C54H27N9O6S6_2023-05-27_17:22:43
#******************************************
#
# CIF file created by Zeo++
# Zeo++ is an open source package to
# analyze microporous materials
#
#*******************************************

_cell_length_a		35.2089   
_cell_length_b		35.5075   
_cell_length_c		7   
_cell_angle_alpha		90   
_cell_angle_beta		90   
_cell_angle_gamma		119.633   

_symmetry_space_group_name_H-M		'P1'
_symmetry_Int_Tables_number		1
_symmetry_cell_setting		Monoclinic

loop_
_symmetry_equiv_pos_as_xyz
'+x,+y,+z'

loop_
_atom_site_label
_atom_site_type_symbol
_atom_site_fract_x
_atom_site_fract_y
_atom_site_fract_z
1	C	0.377333	0.675835	0.999995
2	O	0.415911	0.682577	0.999991
3	C	0.342552	0.630782	0.999998
4	C	0.349406	0.597573	0
5	N	0.39259	0.605339	0
6	C	0.297938	0.622785	3e-06
7	O	0.266676	0.583953	5e-06
8	C	0.287133	0.657434	6e-06
9	C	0.246079	0.649072	5e-06
10	N	0.212237	0.604891	0
11	C	0.323592	0.702127	4e-06
12	O	0.315	0.73209	7e-06
13	C	0.368921	0.712132	0.999999
14	C	0.401058	0.752905	0.999998
15	N	0.394494	0.789099	0
16	H	0.322776	0.565245	1e-06
17	H	0.237356	0.67389	8e-06
18	H	0.433649	0.758727	0.999997
19	C	0.622667	0.324165	0.999995
20	O	0.584089	0.317423	0.999991
21	C	0.657448	0.369218	0.999998
22	C	0.650594	0.402427	0
23	N	0.60741	0.394661	0
24	C	0.702062	0.377215	3e-06
25	O	0.733324	0.416047	5e-06
26	C	0.712867	0.342566	6e-06
27	C	0.753921	0.350928	5e-06
28	N	0.787763	0.395109	0
29	C	0.676408	0.297873	4e-06
30	O	0.685	0.26791	7e-06
31	C	0.631079	0.287868	0.999999
32	C	0.598942	0.247095	0.999998
33	N	0.605506	0.210901	0
34	H	0.677224	0.434755	1e-06
35	H	0.762644	0.32611	8e-06
36	H	0.566351	0.241273	0.999997
37	C	0.58098	0.420582	0
38	C	0.569338	0.431999	0.831919
39	C	0.54608	0.454807	0.866798
40	C	0.541221	0.459574	0.059496
41	C	0.517236	0.483096	0.142346
42	C	0.511936	0.488294	0.333382
43	N	0.489352	0.510443	0.348254
44	C	0.479846	0.519765	0.169445
45	C	0.456302	0.542855	0.139575
46	C	0.439774	0.559063	0.276553
47	C	0.418104	0.580315	0.195511
48	C	0.41902	0.579418	0
49	S	0.445091	0.553851	0.913543
50	C	0.497089	0.502854	0.039183
51	S	0.564635	0.436612	0.196268
52	H	0.576827	0.424655	0.691443
53	H	0.533718	0.466931	0.755026
54	H	0.522136	0.478291	0.46026
55	H	0.480965	0.518668	0.47302
56	H	0.442768	0.556126	0.42898
57	H	0.402928	0.595197	0.277415
58	H	0.495304	0.504605	0.885395
59	C	0.578745	0.158613	0
60	C	0.567359	0.135778	0.831919
61	C	0.544613	0.090161	0.866798
62	C	0.53986	0.080628	0.059496
63	C	0.516402	0.033584	0.142346
64	C	0.511218	0.023189	0.333382
65	N	0.48913	0.978891	0.348254
66	C	0.479833	0.960246	0.169445
67	C	0.456806	0.914066	0.139575
68	C	0.440643	0.881648	0.276553
69	C	0.419449	0.839145	0.195511
70	C	0.420343	0.84094	0
71	S	0.445841	0.892076	0.913543
72	C	0.496698	0.994068	0.039183
73	S	0.562759	0.126553	0.196268
74	H	0.574683	0.150467	0.691443
75	H	0.532523	0.065914	0.755026
76	H	0.521194	0.043195	0.46026
77	H	0.480928	0.962441	0.47302
78	H	0.443572	0.887522	0.42898
79	H	0.404608	0.809379	0.277415
80	H	0.494952	0.990565	0.885395
81	C	0.839596	0.420134	0
82	C	0.862625	0.431551	0.831919
83	C	0.908628	0.45436	0.866798
84	C	0.918241	0.459126	0.059496
85	C	0.965683	0.482648	0.142346
86	C	0.976167	0.487846	0.333382
87	N	0.020839	0.509995	0.348254
88	C	0.039642	0.519317	0.169445
89	C	0.086213	0.542408	0.139575
90	C	0.118905	0.558617	0.276553
91	C	0.161768	0.579869	0.195511
92	C	0.159957	0.57897	0
93	S	0.108389	0.553402	0.913543
94	C	0.005534	0.502406	0.039183
95	S	0.871928	0.436164	0.196268
96	H	0.847811	0.424207	0.691443
97	H	0.93308	0.466484	0.755026
98	H	0.955991	0.477843	0.46026
99	H	0.037428	0.51822	0.47302
100	H	0.112981	0.55568	0.42898
101	H	0.191785	0.594752	0.277415
102	H	0.009066	0.504158	0.885395
