data_C66H30N6O6S12_2023-05-14_18:17:19
#******************************************
#
# CIF file created by Zeo++
# Zeo++ is an open source package to
# analyze microporous materials
#
#*******************************************

_cell_length_a		40.5323   
_cell_length_b		40.8308   
_cell_length_c		7   
_cell_angle_alpha		90   
_cell_angle_beta		90   
_cell_angle_gamma		119.681   

_symmetry_space_group_name_H-M		'P1'
_symmetry_Int_Tables_number		1
_symmetry_cell_setting		Monoclinic

loop_
_symmetry_equiv_pos_as_xyz
'+x,+y,+z'

loop_
_atom_site_label
_atom_site_type_symbol
_atom_site_fract_x
_atom_site_fract_y
_atom_site_fract_z
1	C	0.371562	0.674644	0.999995
2	O	0.405079	0.680509	0.999991
3	C	0.341311	0.635445	0.999998
4	C	0.347237	0.606553	0
5	N	0.384756	0.613309	0
6	C	0.30255	0.628488	3e-06
7	O	0.275361	0.594703	5e-06
8	C	0.293193	0.658633	6e-06
9	C	0.257524	0.651359	5e-06
10	N	0.228089	0.612919	0
11	C	0.324902	0.697519	4e-06
12	O	0.317463	0.723588	7e-06
13	C	0.364285	0.706223	0.999999
14	C	0.392237	0.741698	0.999998
15	N	0.386565	0.773187	0
16	H	0.324077	0.578425	1e-06
17	H	0.249967	0.672951	8e-06
18	H	0.420551	0.746763	0.999997
19	C	0.628438	0.325356	0.999995
20	O	0.594921	0.319491	0.999991
21	C	0.658689	0.364555	0.999998
22	C	0.652763	0.393447	0
23	N	0.615244	0.386691	0
24	C	0.69745	0.371512	3e-06
25	O	0.724639	0.405297	5e-06
26	C	0.706807	0.341367	6e-06
27	C	0.742476	0.348641	5e-06
28	N	0.771911	0.387081	0
29	C	0.675098	0.302481	4e-06
30	O	0.682537	0.276412	7e-06
31	C	0.635715	0.293777	0.999999
32	C	0.607763	0.258302	0.999998
33	N	0.613435	0.226813	0
34	H	0.675923	0.421575	1e-06
35	H	0.750033	0.327049	8e-06
36	H	0.579449	0.253237	0.999997
37	C	0.407693	0.590757	0
38	C	0.397799	0.600485	0.168949
39	S	0.413088	0.585453	0.359581
40	C	0.433164	0.565714	0.215403
41	C	0.452364	0.546836	0.295189
42	C	0.457687	0.541603	0.485431
43	C	0.477981	0.521649	0.511657
44	C	0.488033	0.511766	0.34135
45	C	0.508728	0.491419	0.318838
46	C	0.522228	0.478146	0.463521
47	C	0.541471	0.459226	0.394187
48	C	0.542561	0.458153	0.196921
49	C	0.55992	0.441086	0.082333
50	C	0.578627	0.422693	0.14969
51	C	0.592307	0.409243	0
52	C	0.584211	0.417202	0.821839
53	S	0.559767	0.441235	0.835813
54	S	0.519939	0.480395	0.1006
55	S	0.472362	0.527174	0.152277
56	C	0.427861	0.570928	0.024413
57	H	0.382455	0.61557	0.190767
58	H	0.447606	0.551515	0.603166
59	H	0.484696	0.515047	0.651117
60	H	0.518678	0.481636	0.614112
61	H	0.553859	0.447046	0.487408
62	H	0.582323	0.41906	0.29989
63	H	0.591289	0.410242	0.684439
64	H	0.438019	0.560941	0.907342
65	C	0.409063	0.818291	0
66	C	0.399358	0.798835	0.168949
67	S	0.414355	0.8289	0.359581
68	C	0.434047	0.868378	0.215403
69	C	0.45288	0.906134	0.295189
70	C	0.458101	0.9166	0.485431
71	C	0.478007	0.956508	0.511657
72	C	0.487866	0.976273	0.34135
73	C	0.508165	0.016968	0.318838
74	C	0.521407	0.043514	0.463521
75	C	0.540282	0.081355	0.394187
76	C	0.541352	0.083498	0.196921
77	C	0.558379	0.117633	0.082333
78	C	0.576727	0.154419	0.14969
79	C	0.590146	0.18132	0
80	C	0.582206	0.1654	0.821839
81	S	0.55823	0.117333	0.835813
82	S	0.519163	0.039014	0.1006
83	S	0.472495	0.945457	0.152277
84	C	0.428845	0.857949	0.024413
85	H	0.384309	0.768664	0.190767
86	H	0.448212	0.896777	0.603166
87	H	0.484593	0.969711	0.651117
88	H	0.517925	0.036534	0.614112
89	H	0.552433	0.105714	0.487408
90	H	0.580352	0.161686	0.29989
91	H	0.589149	0.17932	0.684439
92	H	0.438808	0.877924	0.907342
93	C	0.182654	0.590367	0
94	C	0.202253	0.600095	0.168949
95	S	0.171968	0.585063	0.359581
96	C	0.132199	0.565324	0.215403
97	C	0.094166	0.546446	0.295189
98	C	0.083623	0.541213	0.485431
99	C	0.043422	0.521259	0.511657
100	C	0.023511	0.511376	0.34135
101	C	0.982517	0.491029	0.318838
102	C	0.955775	0.477756	0.463521
103	C	0.917657	0.458836	0.394187
104	C	0.915498	0.457764	0.196921
105	C	0.881112	0.440697	0.082333
106	C	0.844055	0.422303	0.14969
107	C	0.816957	0.408853	0
108	C	0.832994	0.416813	0.821839
109	S	0.881414	0.440847	0.835813
110	S	0.960309	0.480006	0.1006
111	S	0.054553	0.526784	0.152277
112	C	0.142705	0.570538	0.024413
113	H	0.232646	0.615182	0.190767
114	H	0.103592	0.551125	0.603166
115	H	0.030121	0.514657	0.651117
116	H	0.962807	0.481246	0.614112
117	H	0.893119	0.446656	0.487408
118	H	0.836735	0.418669	0.29989
119	H	0.818972	0.409854	0.684439
120	H	0.122583	0.560551	0.907342
