data_C57H27N9O6S6_2023-05-12_05:47:19
#******************************************
#
# CIF file created by Zeo++
# Zeo++ is an open source package to
# analyze microporous materials
#
#*******************************************

_cell_length_a		36.3515   
_cell_length_b		36.6501   
_cell_length_c		7   
_cell_angle_alpha		90   
_cell_angle_beta		90   
_cell_angle_gamma		119.644   

_symmetry_space_group_name_H-M		'P1'
_symmetry_Int_Tables_number		1
_symmetry_cell_setting		Monoclinic

loop_
_symmetry_equiv_pos_as_xyz
'+x,+y,+z'

loop_
_atom_site_label
_atom_site_type_symbol
_atom_site_fract_x
_atom_site_fract_y
_atom_site_fract_z
1	C	0.375952	0.67555	0.999995
2	O	0.413319	0.682083	0.999991
3	C	0.342255	0.631896	0.999998
4	C	0.348886	0.599719	0
5	N	0.390714	0.607244	0
6	C	0.299041	0.624148	3e-06
7	O	0.268753	0.586523	5e-06
8	C	0.288583	0.65772	6e-06
9	C	0.248818	0.649619	5e-06
10	N	0.216029	0.60681	0
11	C	0.323907	0.701026	4e-06
12	O	0.315591	0.730058	7e-06
13	C	0.367812	0.71072	0.999999
14	C	0.398949	0.750226	0.999998
15	N	0.392599	0.785295	0
16	H	0.323085	0.568395	1e-06
17	H	0.240374	0.673666	8e-06
18	H	0.430516	0.755867	0.999997
19	C	0.624048	0.32445	0.999995
20	O	0.586681	0.317917	0.999991
21	C	0.657745	0.368104	0.999998
22	C	0.651114	0.400281	0
23	N	0.609286	0.392756	0
24	C	0.700959	0.375852	3e-06
25	O	0.731247	0.413477	5e-06
26	C	0.711417	0.34228	6e-06
27	C	0.751182	0.350381	5e-06
28	N	0.783971	0.39319	0
29	C	0.676093	0.298974	4e-06
30	O	0.684409	0.269942	7e-06
31	C	0.632188	0.28928	0.999999
32	C	0.601051	0.249774	0.999998
33	N	0.607401	0.214705	0
34	H	0.676915	0.431605	1e-06
35	H	0.759626	0.326334	8e-06
36	H	0.569484	0.244133	0.999997
37	C	0.583692	0.417871	0
38	C	0.582192	0.419352	0.194963
39	C	0.560348	0.44079	0.254797
40	C	0.545893	0.454967	0.10382
41	C	0.522226	0.47819	0.109058
42	C	0.509398	0.490778	0.946128
43	N	0.487652	0.512116	0.945768
44	C	0.477443	0.522135	0.11585
45	C	0.453844	0.54529	0.1094
46	C	0.439164	0.559687	0.258524
47	C	0.41744	0.581008	0.195281
48	C	0.416308	0.582129	0
49	S	0.440523	0.558373	0.893026
50	C	0.488736	0.511054	0.286836
51	C	0.511127	0.489082	0.282675
52	S	0.559669	0.441439	0.889849
53	H	0.595789	0.406014	0.290852
54	H	0.555704	0.445353	0.403805
55	H	0.516122	0.484179	0.802988
56	H	0.443599	0.555328	0.408016
57	H	0.403652	0.594532	0.28895
58	H	0.480628	0.51901	0.423709
59	H	0.519557	0.480811	0.418354
60	C	0.58147	0.164041	0
61	C	0.579993	0.161087	0.194963
62	C	0.558612	0.118213	0.254797
63	C	0.544473	0.089852	0.10382
64	C	0.521311	0.043405	0.109058
65	C	0.508757	0.018228	0.946128
66	N	0.487475	0.975551	0.945768
67	C	0.477483	0.955513	0.11585
68	C	0.454388	0.9092	0.1094
69	C	0.44003	0.880397	0.258524
70	C	0.418766	0.837758	0.195281
71	C	0.417648	0.835526	0
72	S	0.441341	0.883046	0.893026
73	C	0.488534	0.977675	0.286836
74	C	0.510448	0.02162	0.282675
75	S	0.557965	0.116898	0.889849
76	H	0.593295	0.187769	0.290852
77	H	0.55406	0.109093	0.403805
78	H	0.515338	0.031425	0.802988
79	H	0.444377	0.889107	0.408016
80	H	0.405277	0.810703	0.28895
81	H	0.480599	0.961764	0.423709
82	H	0.518697	0.038164	0.418354
83	C	0.83418	0.417437	0
84	C	0.837158	0.41891	0.194963
85	C	0.880383	0.440346	0.254797
86	C	0.908977	0.454531	0.10382
87	C	0.955805	0.477755	0.109058
88	C	0.981188	0.490344	0.946128
89	N	0.024215	0.511683	0.945768
90	C	0.044417	0.521702	0.11585
91	C	0.09111	0.544859	0.1094
92	C	0.120148	0.559265	0.258524
93	C	0.163137	0.580584	0.195281
94	C	0.165387	0.581695	0
95	S	0.117478	0.557931	0.893026
96	C	0.022073	0.51062	0.286836
97	C	0.977768	0.488647	0.282675
98	S	0.881709	0.441012	0.889849
99	H	0.810258	0.405566	0.290852
100	H	0.889578	0.444903	0.403805
101	H	0.967883	0.483745	0.802988
102	H	0.111367	0.554913	0.408016
103	H	0.190414	0.594114	0.28895
104	H	0.038115	0.518576	0.423709
105	H	0.961088	0.480375	0.418354
