data_C78H30N12O6S6_2023-05-11_00:31:21
#******************************************
#
# CIF file created by Zeo++
# Zeo++ is an open source package to
# analyze microporous materials
#
#*******************************************

_cell_length_a		49.5901   
_cell_length_b		49.8885   
_cell_length_c		7   
_cell_angle_alpha		90   
_cell_angle_beta		90   
_cell_angle_gamma		119.739   

_symmetry_space_group_name_H-M		'P1'
_symmetry_Int_Tables_number		1
_symmetry_cell_setting		Monoclinic

loop_
_symmetry_equiv_pos_as_xyz
'+x,+y,+z'

loop_
_atom_site_label
_atom_site_type_symbol
_atom_site_fract_x
_atom_site_fract_y
_atom_site_fract_z
1	C	0.364587	0.673199	0.999995
2	O	0.391988	0.678003	0.999991
3	C	0.339824	0.641099	0.999998
4	C	0.34464	0.617438	0
5	N	0.375312	0.622971	0
6	C	0.308136	0.635401	3e-06
7	O	0.285881	0.607734	5e-06
8	C	0.300517	0.660088	6e-06
9	C	0.271356	0.654131	5e-06
10	N	0.247261	0.622652	0
11	C	0.326472	0.691932	4e-06
12	O	0.320416	0.71328	7e-06
13	C	0.35867	0.69906	0.999999
14	C	0.38155	0.72811	0.999998
15	N	0.376944	0.753898	0
16	H	0.325683	0.594405	1e-06
17	H	0.265201	0.671813	8e-06
18	H	0.404698	0.732259	0.999997
19	C	0.635413	0.326801	0.999995
20	O	0.608012	0.321997	0.999991
21	C	0.660176	0.358901	0.999998
22	C	0.65536	0.382562	0
23	N	0.624688	0.377029	0
24	C	0.691864	0.364599	3e-06
25	O	0.714119	0.392266	5e-06
26	C	0.699483	0.339912	6e-06
27	C	0.728644	0.345869	5e-06
28	N	0.752739	0.377348	0
29	C	0.673528	0.308068	4e-06
30	O	0.679584	0.28672	7e-06
31	C	0.64133	0.30094	0.999999
32	C	0.61845	0.27189	0.999998
33	N	0.623056	0.246102	0
34	H	0.674317	0.405595	1e-06
35	H	0.734799	0.328187	8e-06
36	H	0.595302	0.267741	0.999997
37	C	0.605962	0.395497	0
38	C	0.59923	0.402625	0.179449
39	C	0.582478	0.418217	0.192169
40	C	0.573156	0.425973	0.023894
41	C	0.556061	0.442029	0.026454
42	C	0.541746	0.455629	0.028488
43	C	0.524792	0.471848	0.030164
44	C	0.507404	0.472449	0.878656
45	C	0.493375	0.490713	0.922801
46	C	0.500397	0.503039	0.102549
47	C	0.486553	0.521482	0.146242
48	C	0.469348	0.522275	0.994209
49	C	0.452844	0.538948	0.994703
50	C	0.439013	0.553038	0.995448
51	C	0.422637	0.569816	0.996021
52	C	0.390637	0.554953	0.972225
53	C	0.376099	0.572755	0.974171
54	C	0.394038	0.604503	0
55	C	0.425871	0.6173	0.022587
56	N	0.440646	0.600607	0.021118
57	S	0.469289	0.50118	0.801294
58	S	0.524363	0.492458	0.22451
59	N	0.579329	0.419314	0.847752
60	C	0.595673	0.404191	0.839863
61	H	0.606839	0.396266	0.308671
62	H	0.576929	0.42413	0.330221
63	H	0.504849	0.460755	0.743899
64	H	0.489314	0.533361	0.280553
65	H	0.377211	0.530121	0.95255
66	H	0.351106	0.561774	0.955547
67	H	0.440961	0.64196	0.043116
68	H	0.60034	0.399236	0.696412
69	C	0.603977	0.208847	0
70	C	0.596861	0.195082	0.179449
71	C	0.581304	0.162964	0.192169
72	C	0.57357	0.146007	0.023894
73	C	0.55755	0.113087	0.026454
74	C	0.543979	0.085367	0.028488
75	C	0.527794	0.052424	0.030164
76	C	0.527283	0.034587	0.878656
77	C	0.50903	0.002511	0.922801
78	C	0.496626	0.997212	0.102549
79	C	0.478193	0.96514	0.146242
80	C	0.477487	0.947294	0.994209
81	C	0.460845	0.914346	0.994703
82	C	0.44678	0.886618	0.995448
83	C	0.430031	0.853693	0.996021
84	C	0.445113	0.836752	0.972225
85	C	0.427326	0.80463	0.974171
86	C	0.395376	0.790834	0
87	C	0.382369	0.809664	0.022587
88	N	0.399041	0.840918	0.021118
89	S	0.498654	0.968219	0.801294
90	S	0.507117	0.031497	0.22451
91	N	0.580219	0.15875	0.847752
92	C	0.595308	0.189998	0.839863
93	H	0.603201	0.208951	0.308671
94	H	0.5754	0.151581	0.330221
95	H	0.539029	0.043686	0.743899
96	H	0.466259	0.95606	0.280553
97	H	0.470099	0.848142	0.95255
98	H	0.438476	0.790775	0.955547
99	H	0.357546	0.800093	0.043116
100	H	0.600255	0.199554	0.696412
101	C	0.789578	0.395178	0
102	C	0.803428	0.401815	0.179449
103	C	0.835736	0.41834	0.192169
104	C	0.852792	0.427542	0.023894
105	C	0.885907	0.444406	0.026454
106	C	0.913793	0.458526	0.028488
107	C	0.946932	0.47525	0.030164
108	C	0.964831	0.492485	0.878656
109	C	0.997112	0.506298	0.922801
110	C	0.002494	0.499271	0.102549
111	C	0.034772	0.5129	0.146242
112	C	0.052682	0.529953	0.994209
113	C	0.085829	0.546227	0.994703
114	C	0.113725	0.559865	0.995448
115	C	0.146849	0.576013	0.996021
116	C	0.163768	0.607817	0.972225
117	C	0.196093	0.622136	0.974171
118	C	0.210103	0.604184	0
119	C	0.191278	0.572557	0.022587
120	N	0.159831	0.557997	0.021118
121	S	0.031575	0.530122	0.801294
122	S	0.968038	0.475567	0.22451
123	N	0.83997	0.421457	0.847752
124	C	0.808537	0.405332	0.839863
125	H	0.789479	0.394304	0.308671
126	H	0.847188	0.42381	0.330221
127	H	0.95564	0.49508	0.743899
128	H	0.043945	0.5101	0.280553
129	H	0.152208	0.621258	0.95255
130	H	0.209936	0.646973	0.955547
131	H	0.201011	0.557468	0.043116
132	H	0.798923	0.400732	0.696412
