data_C54H24N6O6S9_2023-05-12_05:32:45
#******************************************
#
# CIF file created by Zeo++
# Zeo++ is an open source package to
# analyze microporous materials
#
#*******************************************

_cell_length_a		34.2838   
_cell_length_b		34.5824   
_cell_length_c		7   
_cell_angle_alpha		90   
_cell_angle_beta		90   
_cell_angle_gamma		119.623   

_symmetry_space_group_name_H-M		'P1'
_symmetry_Int_Tables_number		1
_symmetry_cell_setting		Monoclinic

loop_
_symmetry_equiv_pos_as_xyz
'+x,+y,+z'

loop_
_atom_site_label
_atom_site_type_symbol
_atom_site_fract_x
_atom_site_fract_y
_atom_site_fract_z
1	C	0.378518	0.676079	0.999995
2	O	0.418136	0.683001	0.999991
3	C	0.342808	0.629825	0.999998
4	C	0.349854	0.595732	0
5	N	0.394202	0.603704	0
6	C	0.296992	0.621615	3e-06
7	O	0.264895	0.581749	5e-06
8	C	0.285888	0.657187	6e-06
9	C	0.243728	0.648603	5e-06
10	N	0.208982	0.603245	0
11	C	0.323322	0.703072	4e-06
12	O	0.314492	0.733834	7e-06
13	C	0.369872	0.713344	0.999999
14	C	0.402868	0.755203	0.999998
15	N	0.396119	0.792362	0
16	H	0.322512	0.562542	1e-06
17	H	0.234764	0.674083	8e-06
18	H	0.436337	0.761181	0.999997
19	C	0.621482	0.323921	0.999995
20	O	0.581864	0.316999	0.999991
21	C	0.657192	0.370175	0.999998
22	C	0.650146	0.404268	0
23	N	0.605798	0.396296	0
24	C	0.703008	0.378385	3e-06
25	O	0.735105	0.418251	5e-06
26	C	0.714112	0.342813	6e-06
27	C	0.756272	0.351397	5e-06
28	N	0.791018	0.396755	0
29	C	0.676678	0.296928	4e-06
30	O	0.685508	0.266166	7e-06
31	C	0.630128	0.286656	0.999999
32	C	0.597132	0.244797	0.999998
33	N	0.603881	0.207638	0
34	H	0.677488	0.437458	1e-06
35	H	0.765236	0.325917	8e-06
36	H	0.563663	0.238819	0.999997
37	C	0.42135	0.577093	0
38	C	0.416334	0.582011	0.191271
39	C	0.436541	0.562204	0.304212
40	C	0.455921	0.543207	0.193214
41	C	0.480912	0.51871	0.273526
42	C	0.48596	0.513762	0.465379
43	S	0.514521	0.485766	0.506464
44	C	0.520831	0.47958	0.26645
45	C	0.544084	0.456786	0.198356
46	C	0.563923	0.437333	0.305201
47	C	0.583962	0.417692	0.190368
48	C	0.57865	0.422907	0
49	S	0.550426	0.450577	0.957725
50	C	0.501028	0.498991	0.159569
51	S	0.449554	0.549447	0.954551
52	H	0.399275	0.598733	0.248779
53	H	0.436512	0.562232	0.458847
54	H	0.47446	0.525035	0.585569
55	H	0.564301	0.436957	0.45996
56	H	0.601095	0.400894	0.246235
57	H	0.5009	0.499116	0.004832
58	C	0.422656	0.845584	0
59	C	0.417752	0.83575	0.191271
60	C	0.437503	0.875364	0.304212
61	C	0.456447	0.913357	0.193214
62	C	0.480875	0.962351	0.273526
63	C	0.485808	0.972246	0.465379
64	S	0.513726	0.028238	0.506464
65	C	0.519895	0.040609	0.26645
66	C	0.542625	0.086196	0.198356
67	C	0.562023	0.125096	0.305201
68	C	0.581609	0.16438	0.190368
69	C	0.576408	0.153957	0
70	S	0.548816	0.098621	0.957725
71	C	0.500539	0.001788	0.159569
72	S	0.450224	0.900876	0.954551
73	H	0.401077	0.802306	0.248779
74	H	0.437475	0.875307	0.458847
75	H	0.474567	0.949701	0.585569
76	H	0.562398	0.125841	0.45996
77	H	0.598359	0.197971	0.246235
78	H	0.500413	0.001536	0.004832
79	C	0.155297	0.576633	0
80	C	0.165217	0.58155	0.191271
81	C	0.125259	0.561743	0.304212
82	C	0.086935	0.542747	0.193214
83	C	0.037516	0.51825	0.273526
84	C	0.027535	0.513303	0.465379
85	S	0.971056	0.485307	0.506464
86	C	0.958577	0.479122	0.26645
87	C	0.912595	0.456329	0.198356
88	C	0.873356	0.436882	0.305201
89	C	0.833732	0.417239	0.190368
90	C	0.844245	0.422447	0
91	S	0.900061	0.450112	0.957725
92	C	0.997736	0.498532	0.159569
93	S	0.099525	0.548988	0.954551
94	H	0.198951	0.598272	0.248779
95	H	0.125316	0.561772	0.458847
96	H	0.050276	0.524575	0.585569
97	H	0.872604	0.436512	0.45996
98	H	0.799848	0.400446	0.246235
99	H	0.99799	0.498658	0.004832
