data_C84H51N9O6S6_2023-05-11_08:35:23
#******************************************
#
# CIF file created by Zeo++
# Zeo++ is an open source package to
# analyze microporous materials
#
#*******************************************

_cell_length_a		46.72   
_cell_length_b		47.0185   
_cell_length_c		7   
_cell_angle_alpha		90   
_cell_angle_beta		90   
_cell_angle_gamma		119.723   

_symmetry_space_group_name_H-M		'P1'
_symmetry_Int_Tables_number		1
_symmetry_cell_setting		Monoclinic

loop_
_symmetry_equiv_pos_as_xyz
'+x,+y,+z'

loop_
_atom_site_label
_atom_site_type_symbol
_atom_site_fract_x
_atom_site_fract_y
_atom_site_fract_z
1	C	0.366505	0.673597	0.999995
2	O	0.395587	0.678693	0.999991
3	C	0.340232	0.639543	0.999998
4	C	0.345352	0.614442	0
5	N	0.377906	0.620312	0
6	C	0.306599	0.633498	3e-06
7	O	0.282986	0.604147	5e-06
8	C	0.298503	0.659688	6e-06
9	C	0.267553	0.653368	5e-06
10	N	0.241989	0.619973	0
11	C	0.326041	0.69347	4e-06
12	O	0.319607	0.716117	7e-06
13	C	0.360215	0.701032	0.999999
14	C	0.384491	0.731851	0.999998
15	N	0.379593	0.759208	0
16	H	0.325238	0.590006	1e-06
17	H	0.261013	0.672126	8e-06
18	H	0.409059	0.736251	0.999997
19	C	0.633495	0.326403	0.999995
20	O	0.604413	0.321307	0.999991
21	C	0.659768	0.360457	0.999998
22	C	0.654648	0.385558	0
23	N	0.622094	0.379688	0
24	C	0.693401	0.366502	3e-06
25	O	0.717014	0.395853	5e-06
26	C	0.701497	0.340312	6e-06
27	C	0.732447	0.346632	5e-06
28	N	0.758011	0.380027	0
29	C	0.673959	0.30653	4e-06
30	O	0.680393	0.283883	7e-06
31	C	0.639785	0.298968	0.999999
32	C	0.615509	0.268149	0.999998
33	N	0.620407	0.240792	0
34	H	0.674762	0.409994	1e-06
35	H	0.738987	0.327874	8e-06
36	H	0.590941	0.263749	0.999997
37	C	0.397789	0.600719	0
38	C	0.409289	0.589235	0.856809
39	C	0.425728	0.572988	0.932894
40	C	0.426252	0.572587	0.13131
41	C	0.440006	0.559033	0.260075
42	C	0.455845	0.543318	0.19962
43	C	0.467357	0.531996	0.359838
44	C	0.484982	0.514534	0.344196
45	C	0.496005	0.503614	0.494677
46	N	0.511781	0.487981	0.421639
47	C	0.511308	0.488453	0.225201
48	C	0.526349	0.473545	0.120993
49	C	0.526296	0.473156	0.929072
50	C	0.543808	0.4559	0.856395
51	C	0.554187	0.446202	0.038572
52	C	0.57192	0.428974	0.063511
53	C	0.581768	0.419779	0.228553
54	C	0.599273	0.402619	0.192074
55	C	0.602211	0.399281	0
56	S	0.584559	0.41616	0.864952
57	C	0.543637	0.45684	0.186893
58	C	0.494698	0.504905	0.174727
59	C	0.458384	0.540961	0.521383
60	C	0.440226	0.558921	0.476098
61	S	0.406289	0.592427	0.220848
62	H	0.406293	0.592113	0.705914
63	H	0.436694	0.562064	0.844138
64	H	0.459961	0.539168	0.053107
65	H	0.494105	0.505491	0.647602
66	H	0.522173	0.477657	0.501809
67	H	0.515436	0.483524	0.835943
68	H	0.565155	0.472479	0.769864
69	H	0.527082	0.434412	0.771906
70	H	0.576723	0.425051	0.371244
71	H	0.608963	0.393442	0.301589
72	H	0.547168	0.453769	0.336091
73	H	0.490109	0.509457	0.029559
74	H	0.463244	0.536219	0.665159
75	H	0.453356	0.58383	0.533732
76	H	0.415189	0.545863	0.534158
77	C	0.399145	0.798392	0
78	C	0.410607	0.821208	0.856809
79	C	0.426821	0.853654	0.932894
80	C	0.42722	0.854572	0.13131
81	C	0.440746	0.881679	0.260075
82	C	0.45643	0.913002	0.19962
83	C	0.467727	0.935667	0.359838
84	C	0.485154	0.970497	0.344196
85	C	0.496053	0.992279	0.494677
86	N	0.511654	0.023457	0.421639
87	C	0.511182	0.022518	0.225201
88	C	0.52606	0.052247	0.120993
89	C	0.526451	0.052582	0.929072
90	C	0.543672	0.087095	0.856395
91	C	0.553347	0.107024	0.038572
92	C	0.570538	0.141726	0.063511
93	C	0.579711	0.160629	0.228553
94	C	0.596835	0.195038	0.192074
95	C	0.600169	0.20127	0
96	S	0.583327	0.166993	0.864952
97	C	0.542729	0.08599	0.186893
98	C	0.494764	0.9897	0.174727
99	C	0.458781	0.917862	0.521383
100	C	0.440857	0.882009	0.476098
101	S	0.40742	0.815062	0.220848
102	H	0.407735	0.815378	0.705914
103	H	0.437722	0.875383	0.844138
104	H	0.460572	0.921207	0.053107
105	H	0.494179	0.988529	0.647602
106	H	0.521957	0.04402	0.501809
107	H	0.516106	0.03151	0.835943
108	H	0.526914	0.091761	0.769864
109	H	0.56533	0.091888	0.771906
110	H	0.574448	0.150387	0.371244
111	H	0.605991	0.213765	0.301589
112	H	0.545792	0.092543	0.336091
113	H	0.490221	0.980625	0.029559
114	H	0.463513	0.927393	0.665159
115	H	0.415785	0.870249	0.533732
116	H	0.454102	0.870185	0.534158
117	C	0.202554	0.600381	0
118	C	0.179593	0.589049	0.856809
119	C	0.146939	0.572851	0.932894
120	C	0.146016	0.572333	0.13131
121	C	0.118736	0.55878	0.260075
122	C	0.087214	0.543173	0.19962
123	C	0.064404	0.531829	0.359838
124	C	0.029351	0.514461	0.344196
125	C	0.00743	0.5036	0.494677
126	N	0.976053	0.488055	0.421639
127	C	0.976998	0.488521	0.225201
128	C	0.947079	0.4737	0.120993
129	C	0.946741	0.473754	0.929072
130	C	0.912008	0.456498	0.856395
131	C	0.891954	0.446267	0.038572
132	C	0.857031	0.428792	0.063511
133	C	0.838009	0.419085	0.228553
134	C	0.80338	0.401835	0.192074
135	C	0.797108	0.398942	0
136	S	0.831602	0.416339	0.864952
137	C	0.913122	0.456663	0.186893
138	C	0.010026	0.504888	0.174727
139	C	0.082323	0.54067	0.521383
140	C	0.118405	0.558562	0.476098
141	S	0.185779	0.592004	0.220848
142	H	0.18546	0.592002	0.705914
143	H	0.125072	0.562045	0.844138
144	H	0.078956	0.539118	0.053107
145	H	0.011204	0.505472	0.647602
146	H	0.955358	0.477815	0.501809
147	H	0.967947	0.484458	0.835943
148	H	0.907418	0.435253	0.769864
149	H	0.907077	0.473192	0.771906
150	H	0.848317	0.424054	0.371244
151	H	0.784535	0.392285	0.301589
152	H	0.906529	0.453181	0.336091
153	H	0.019159	0.50941	0.029559
154	H	0.072731	0.53588	0.665159
155	H	0.130347	0.545413	0.533732
156	H	0.130197	0.583445	0.534158
