data_C105H51N9O6S18_2023-05-12_19:19:02
#******************************************
#
# CIF file created by Zeo++
# Zeo++ is an open source package to
# analyze microporous materials
#
#*******************************************

_cell_length_a		62.2193   
_cell_length_b		62.5177   
_cell_length_c		7   
_cell_angle_alpha		90   
_cell_angle_beta		90   
_cell_angle_gamma		119.791   

_symmetry_space_group_name_H-M		'P1'
_symmetry_Int_Tables_number		1
_symmetry_cell_setting		Monoclinic

loop_
_symmetry_equiv_pos_as_xyz
'+x,+y,+z'

loop_
_atom_site_label
_atom_site_type_symbol
_atom_site_fract_x
_atom_site_fract_y
_atom_site_fract_z
1	C	0.358249	0.671882	0.999995
2	O	0.380092	0.675717	0.999991
3	C	0.338485	0.646253	0.999998
4	C	0.342303	0.627362	0
5	N	0.366754	0.63178	0
6	C	0.313224	0.641704	3e-06
7	O	0.295463	0.619614	5e-06
8	C	0.307173	0.661414	6e-06
9	C	0.283926	0.656658	5e-06
10	N	0.264695	0.631525	0
11	C	0.327886	0.686839	4e-06
12	O	0.323078	0.703883	7e-06
13	C	0.353555	0.69253	0.999999
14	C	0.371815	0.715724	0.999998
15	N	0.368167	0.736313	0
16	H	0.327175	0.608972	1e-06
17	H	0.279035	0.670776	8e-06
18	H	0.390268	0.719036	0.999997
19	C	0.641751	0.328118	0.999995
20	O	0.619908	0.324283	0.999991
21	C	0.661515	0.353747	0.999998
22	C	0.657697	0.372638	0
23	N	0.633246	0.36822	0
24	C	0.686776	0.358296	3e-06
25	O	0.704537	0.380386	5e-06
26	C	0.692827	0.338586	6e-06
27	C	0.716074	0.343342	5e-06
28	N	0.735305	0.368475	0
29	C	0.672114	0.313161	4e-06
30	O	0.676922	0.296117	7e-06
31	C	0.646445	0.30747	0.999999
32	C	0.628185	0.284276	0.999998
33	N	0.631833	0.263687	0
34	H	0.672825	0.391028	1e-06
35	H	0.720965	0.329224	8e-06
36	H	0.609732	0.280964	0.999997
37	C	0.381664	0.617035	0
38	C	0.373532	0.611094	0.184551
39	S	0.383763	0.592872	0.285273
40	C	0.399257	0.592962	0.080854
41	C	0.412932	0.579852	0.065445
42	C	0.419445	0.572678	0.898586
43	C	0.433095	0.560234	0.931815
44	C	0.436964	0.558088	0.123755
45	C	0.449975	0.546656	0.209964
46	C	0.453325	0.543987	0.402124
47	C	0.467131	0.531722	0.435629
48	C	0.474307	0.525291	0.268583
49	C	0.488329	0.512302	0.244789
50	C	0.506519	0.518721	0.105836
51	N	0.520042	0.507337	0.079854
52	C	0.515574	0.488356	0.197772
53	C	0.53109	0.477131	0.158232
54	C	0.548553	0.483288	0.0152
55	C	0.560259	0.468643	0.017518
56	C	0.551695	0.45137	0.16278
57	C	0.559256	0.433429	0.208221
58	C	0.552284	0.417597	0.362772
59	C	0.563344	0.402325	0.361764
60	C	0.578675	0.406588	0.206375
61	C	0.592848	0.394603	0.159035
62	C	0.607062	0.397858	0.997444
63	C	0.618336	0.382965	0
64	C	0.612846	0.368635	0.160341
65	S	0.593806	0.373236	0.30972
66	S	0.579267	0.429288	0.064591
67	S	0.529455	0.453489	0.293492
68	C	0.497793	0.480652	0.341384
69	C	0.484178	0.492764	0.364705
70	S	0.463867	0.534046	0.073726
71	S	0.423774	0.571393	0.259782
72	C	0.396323	0.606773	0.938919
73	H	0.362165	0.616435	0.265669
74	H	0.414593	0.575952	0.757244
75	H	0.439648	0.553222	0.817719
76	H	0.446237	0.550478	0.516144
77	H	0.471667	0.528021	0.576785
78	H	0.511261	0.533911	0.007757
79	H	0.552722	0.497826	0.912486
80	H	0.574384	0.470971	0.915791
81	H	0.539767	0.416763	0.473848
82	H	0.559938	0.38882	0.471844
83	H	0.609247	0.410362	0.882326
84	H	0.618962	0.355737	0.197826
85	H	0.494124	0.465445	0.435636
86	H	0.470181	0.486552	0.476208
87	H	0.404497	0.60947	0.798139
88	C	0.382889	0.765803	0
89	C	0.38888	0.763644	0.184551
90	S	0.407108	0.79195	0.285273
91	C	0.406952	0.807248	0.080854
92	C	0.420041	0.833885	0.065445
93	C	0.427207	0.847497	0.898586
94	C	0.439627	0.873445	0.931815
95	C	0.441763	0.879425	0.123755
96	C	0.453171	0.903731	0.209964
97	C	0.455833	0.909715	0.402124
98	C	0.468073	0.93564	0.435629
99	C	0.474491	0.949171	0.268583
100	C	0.487456	0.976031	0.244789
101	C	0.480943	0.987704	0.105836
102	N	0.492302	0.012471	0.079854
103	C	0.511353	0.026936	0.197772
104	C	0.522543	0.053523	0.158232
105	C	0.516296	0.064735	0.0152
106	C	0.530932	0.090945	0.017518
107	C	0.548287	0.09964	0.16278
108	C	0.566245	0.125014	0.208221
109	C	0.582149	0.133856	0.362772
110	C	0.597415	0.160048	0.361764
111	C	0.593076	0.171028	0.206375
112	C	0.605035	0.19704	0.159035
113	C	0.601711	0.207914	0.997444
114	C	0.616597	0.233942	0
115	C	0.630988	0.242759	0.160341
116	S	0.626455	0.219268	0.30972
117	S	0.570313	0.149012	0.064591
118	S	0.546256	0.075442	0.293492
119	C	0.519152	0.016947	0.341384
120	C	0.507065	0.991365	0.364705
121	S	0.465757	0.930084	0.073726
122	S	0.428477	0.853075	0.259782
123	C	0.393117	0.790582	0.938919
124	H	0.383572	0.747035	0.265669
125	H	0.423944	0.839418	0.757244
126	H	0.44663	0.886935	0.817719
127	H	0.449354	0.896211	0.516144
128	H	0.471765	0.94383	0.576785
129	H	0.465693	0.977287	0.007757
130	H	0.501702	0.054399	0.912486
131	H	0.528538	0.102654	0.915791
132	H	0.583038	0.122255	0.473848
133	H	0.610971	0.170114	0.471844
134	H	0.589164	0.197633	0.882326
135	H	0.643896	0.261677	0.197826
136	H	0.534416	0.028448	0.435636
137	H	0.513352	0.983649	0.476208
138	H	0.390378	0.796013	0.798139
139	C	0.235063	0.61678	0
140	C	0.237203	0.62488	0.184551
141	S	0.208745	0.614796	0.285273
142	C	0.193406	0.599407	0.080854
143	C	0.166643	0.585881	0.065445
144	C	0.152963	0.579443	0.898586
145	C	0.126893	0.565939	0.931815
146	C	0.120889	0.562106	0.123755
147	C	0.096469	0.549231	0.209964
148	C	0.090458	0.545916	0.402124
149	C	0.064412	0.532256	0.435629
150	C	0.050817	0.525156	0.268583
151	C	0.023831	0.511285	0.244789
152	C	0.012153	0.493192	0.105836
153	N	0.987271	0.47981	0.079854
154	C	0.972688	0.484327	0.197772
155	C	0.945982	0.468964	0.158232
156	C	0.934766	0.451595	0.0152
157	C	0.908424	0.44003	0.017518
158	C	0.899633	0.448609	0.16278
159	C	0.874115	0.441175	0.208221
160	C	0.865183	0.448165	0.362772
161	C	0.838857	0.437245	0.361764
162	C	0.827864	0.422001	0.206375
163	C	0.801733	0.407976	0.159035
164	C	0.790843	0.393845	0.997444
165	C	0.764683	0.382711	0
166	C	0.755781	0.388223	0.160341
167	S	0.779355	0.407114	0.30972
168	S	0.850035	0.421318	0.064591
169	S	0.923905	0.470687	0.293492
170	C	0.982671	0.502019	0.341384
171	C	0.008373	0.515489	0.364705
172	S	0.069992	0.535488	0.073726
173	S	0.147365	0.57515	0.259782
174	C	0.210175	0.602263	0.938919
175	H	0.253879	0.636148	0.265669
176	H	0.161078	0.584248	0.757244
177	H	0.113337	0.55946	0.817719
178	H	0.104025	0.552928	0.516144
179	H	0.056183	0.527766	0.576785
180	H	0.022662	0.48842	0.007757
181	H	0.945192	0.447394	0.912486
182	H	0.896694	0.425993	0.915791
183	H	0.876811	0.4606	0.473848
184	H	0.828706	0.440684	0.471844
185	H	0.801205	0.391623	0.882326
186	H	0.736758	0.382203	0.197826
187	H	0.971076	0.505726	0.435636
188	H	0.016083	0.529416	0.476208
189	H	0.204741	0.594135	0.798139
