data_C114H48N12O6S24_2023-05-15_05:57:06
#******************************************
#
# CIF file created by Zeo++
# Zeo++ is an open source package to
# analyze microporous materials
#
#*******************************************

_cell_length_a		66.3748   
_cell_length_b		66.6731   
_cell_length_c		7   
_cell_angle_alpha		90   
_cell_angle_beta		90   
_cell_angle_gamma		119.804   

_symmetry_space_group_name_H-M		'P1'
_symmetry_Int_Tables_number		1
_symmetry_cell_setting		Monoclinic

loop_
_symmetry_equiv_pos_as_xyz
'+x,+y,+z'

loop_
_atom_site_label
_atom_site_type_symbol
_atom_site_fract_x
_atom_site_fract_y
_atom_site_fract_z
1	C	0.35669	0.671558	0.999995
2	O	0.377167	0.675154	0.999991
3	C	0.338158	0.647523	0.999998
4	C	0.341732	0.629807	0
5	N	0.364653	0.63395	0
6	C	0.314477	0.643257	3e-06
7	O	0.297822	0.622541	5e-06
8	C	0.308809	0.661741	6e-06
9	C	0.287017	0.65728	5e-06
10	N	0.268983	0.633711	0
11	C	0.328232	0.685584	4e-06
12	O	0.323729	0.701568	7e-06
13	C	0.352295	0.690921	0.999999
14	C	0.369418	0.712673	0.999998
15	N	0.366003	0.731981	0
16	H	0.327546	0.612561	1e-06
17	H	0.282435	0.67052	8e-06
18	H	0.386717	0.715778	0.999997
19	C	0.64331	0.328442	0.999995
20	O	0.622833	0.324846	0.999991
21	C	0.661842	0.352477	0.999998
22	C	0.658268	0.370193	0
23	N	0.635347	0.36605	0
24	C	0.685523	0.356743	3e-06
25	O	0.702178	0.377459	5e-06
26	C	0.691191	0.338259	6e-06
27	C	0.712983	0.34272	5e-06
28	N	0.731017	0.366289	0
29	C	0.671768	0.314416	4e-06
30	O	0.676271	0.298432	7e-06
31	C	0.647705	0.309079	0.999999
32	C	0.630582	0.287327	0.999998
33	N	0.633997	0.268019	0
34	H	0.672454	0.387439	1e-06
35	H	0.717565	0.32948	8e-06
36	H	0.613283	0.284222	0.999997
37	C	0.621374	0.379878	0
38	C	0.621005	0.387758	0.820123
39	C	0.608854	0.400419	0.818265
40	C	0.600478	0.401765	0.996635
41	C	0.587361	0.413204	0.042172
42	C	0.575909	0.419848	0.914264
43	C	0.564732	0.430919	0.004338
44	C	0.567785	0.432688	0.200283
45	C	0.559004	0.442838	0.336951
46	C	0.561644	0.444172	0.533304
47	C	0.550641	0.455423	0.623479
48	C	0.539708	0.46259	0.4949
49	C	0.526887	0.474494	0.531979
50	N	0.517622	0.480802	0.394692
51	C	0.506463	0.491843	0.469905
52	C	0.494748	0.500881	0.366093
53	C	0.484191	0.511669	0.460388
54	C	0.484999	0.51371	0.658589
55	C	0.496712	0.504667	0.762415
56	C	0.507281	0.493892	0.668091
57	S	0.522567	0.481513	0.759149
58	N	0.473842	0.524759	0.733937
59	C	0.464641	0.531117	0.596205
60	C	0.452002	0.543062	0.639143
61	C	0.448214	0.548904	0.819824
62	C	0.435156	0.560609	0.817509
63	C	0.429161	0.563644	0.634879
64	C	0.415838	0.574695	0.583536
65	C	0.401816	0.578936	0.703435
66	C	0.391186	0.590299	0.60943
67	C	0.397177	0.59459	0.418645
68	C	0.389539	0.605972	0.284433
69	C	0.381124	0.620742	0.328713
70	C	0.374837	0.629003	0.163732
71	C	0.378626	0.620122	0
72	S	0.389451	0.60231	0.040777
73	S	0.415827	0.584807	0.358166
74	S	0.439537	0.551976	0.469743
75	S	0.468948	0.524083	0.369331
76	S	0.543062	0.455421	0.266316
77	S	0.584323	0.420733	0.270207
78	S	0.607569	0.387328	0.163946
79	H	0.628907	0.384776	0.696053
80	H	0.606563	0.408269	0.690706
81	H	0.5753	0.416884	0.761716
82	H	0.554888	0.437216	0.926337
83	H	0.571059	0.437414	0.611606
84	H	0.550955	0.458	0.776459
85	H	0.494031	0.499361	0.21137
86	H	0.497434	0.506188	0.917108
87	H	0.454611	0.54492	0.948672
88	H	0.430591	0.566588	0.945475
89	H	0.399027	0.574031	0.852716
90	H	0.379517	0.594886	0.68006
91	H	0.379635	0.625655	0.47328
92	H	0.367998	0.640743	0.167135
93	C	0.619707	0.240125	0
94	C	0.611808	0.231908	0.820123
95	C	0.599163	0.207224	0.818265
96	C	0.597847	0.197562	0.996635
97	C	0.586431	0.173135	0.042172
98	C	0.579815	0.155139	0.914264
99	C	0.56876	0.133007	0.004338
100	C	0.566974	0.134277	0.200283
101	C	0.556833	0.115442	0.336951
102	C	0.555486	0.116737	0.533304
103	C	0.544249	0.094598	0.623479
104	C	0.537107	0.076596	0.4949
105	C	0.525223	0.052001	0.531979
106	N	0.518936	0.036512	0.394692
107	C	0.507911	0.014428	0.469905
108	C	0.498896	0.993785	0.366093
109	C	0.488123	0.972551	0.460388
110	C	0.486073	0.97132	0.658589
111	C	0.495093	0.991965	0.762415
112	C	0.505854	0.013199	0.668091
113	S	0.518204	0.040717	0.759149
114	N	0.47504	0.94923	0.733937
115	C	0.468702	0.933754	0.596205
116	C	0.456777	0.909299	0.639143
117	C	0.450935	0.899716	0.819824
118	C	0.439252	0.875083	0.817509
119	C	0.436233	0.866103	0.634879
120	C	0.425207	0.841859	0.583536
121	C	0.42101	0.823702	0.703435
122	C	0.40966	0.801822	0.60943
123	C	0.405334	0.8035	0.418645
124	C	0.393954	0.784575	0.284433
125	C	0.37918	0.761502	0.328713
126	C	0.370922	0.747026	0.163732
127	C	0.379811	0.759637	0
128	S	0.397626	0.788135	0.040777
129	S	0.415069	0.831776	0.358166
130	S	0.447889	0.888034	0.469743
131	S	0.475737	0.94504	0.369331
132	S	0.544281	0.08707	0.266316
133	S	0.578894	0.162617	0.270207
134	S	0.612292	0.218987	0.163946
135	H	0.614767	0.24273	0.696053
136	H	0.591303	0.197129	0.690706
137	H	0.582788	0.157486	0.761716
138	H	0.562485	0.116953	0.926337
139	H	0.562223	0.132823	0.611606
140	H	0.541665	0.092343	0.776459
141	H	0.500423	0.994587	0.21137
142	H	0.493566	0.991168	0.917108
143	H	0.454904	0.91004	0.948672
144	H	0.433275	0.864591	0.945475
145	H	0.425938	0.825816	0.852716
146	H	0.405107	0.785659	0.68006
147	H	0.37426	0.755128	0.47328
148	H	0.359179	0.728538	0.167135
149	C	0.758558	0.379639	0
150	C	0.766827	0.379976	0.820123
151	C	0.791622	0.391998	0.818265
152	C	0.801315	0.400315	0.996635
153	C	0.825848	0.413303	0.042172
154	C	0.843915	0.424655	0.914264
155	C	0.866147	0.435716	0.004338
156	C	0.86488	0.432677	0.200283
157	C	0.883803	0.441361	0.336951
158	C	0.88251	0.438733	0.533304
159	C	0.904749	0.449621	0.623479
160	C	0.922824	0.460455	0.4949
161	C	0.947529	0.473147	0.531979
162	N	0.963082	0.482328	0.394692
163	C	0.985265	0.493371	0.469905
164	C	0.005995	0.504975	0.366093
165	C	0.027325	0.515422	0.460388
166	C	0.028567	0.514611	0.658589
167	C	0.007834	0.503009	0.762415
168	C	0.986504	0.49255	0.668091
169	S	0.958869	0.477412	0.759149
170	N	0.050757	0.525653	0.733937
171	C	0.066296	0.53477	0.596205
172	C	0.090861	0.547281	0.639143
173	C	0.100491	0.551022	0.819824
174	C	0.125231	0.56395	0.817509
175	C	0.134246	0.569894	0.634879
176	C	0.158595	0.583088	0.583536
177	C	0.176814	0.597003	0.703435
178	C	0.198794	0.607521	0.60943
179	C	0.197129	0.601552	0.418645
180	C	0.216147	0.609095	0.284433
181	C	0.239336	0.617398	0.328713
182	C	0.25388	0.623612	0.163732
183	C	0.241203	0.619883	0
184	S	0.212563	0.609197	0.040777
185	S	0.168743	0.583059	0.358166
186	S	0.112214	0.559631	0.469743
187	S	0.054955	0.530518	0.369331
188	S	0.912296	0.457151	0.266316
189	S	0.836422	0.416292	0.270207
190	S	0.779778	0.393326	0.163946
191	H	0.755965	0.372136	0.696053
192	H	0.801774	0.394243	0.690706
193	H	0.841551	0.425272	0.761716
194	H	0.882266	0.445473	0.926337
195	H	0.866357	0.429405	0.611606
196	H	0.90702	0.449299	0.776459
197	H	0.005185	0.505694	0.21137
198	H	0.00864	0.502286	0.917108
199	H	0.090125	0.544681	0.948672
200	H	0.135774	0.568463	0.945475
201	H	0.174675	0.599794	0.852716
202	H	0.215015	0.619097	0.68006
203	H	0.245745	0.618859	0.47328
204	H	0.272462	0.630361	0.167135
