data_C108H48N6O6S24_2023-05-13_10:16:11
#******************************************
#
# CIF file created by Zeo++
# Zeo++ is an open source package to
# analyze microporous materials
#
#*******************************************

_cell_length_a		63.2923   
_cell_length_b		63.5907   
_cell_length_c		7   
_cell_angle_alpha		90   
_cell_angle_beta		90   
_cell_angle_gamma		119.795   

_symmetry_space_group_name_H-M		'P1'
_symmetry_Int_Tables_number		1
_symmetry_cell_setting		Monoclinic

loop_
_symmetry_equiv_pos_as_xyz
'+x,+y,+z'

loop_
_atom_site_label
_atom_site_type_symbol
_atom_site_fract_x
_atom_site_fract_y
_atom_site_fract_z
1	C	0.357827	0.671794	0.999995
2	O	0.3793	0.675565	0.999991
3	C	0.338396	0.646597	0.999998
4	C	0.342148	0.628024	0
5	N	0.366185	0.632367	0
6	C	0.313563	0.642124	3e-06
7	O	0.296102	0.620407	5e-06
8	C	0.307616	0.661503	6e-06
9	C	0.284763	0.656826	5e-06
10	N	0.265856	0.632117	0
11	C	0.32798	0.686499	4e-06
12	O	0.323255	0.703257	7e-06
13	C	0.353214	0.692094	0.999999
14	C	0.371166	0.714898	0.999998
15	N	0.367581	0.73514	0
16	H	0.327275	0.609943	1e-06
17	H	0.279955	0.670707	8e-06
18	H	0.389307	0.718154	0.999997
19	C	0.642173	0.328206	0.999995
20	O	0.6207	0.324435	0.999991
21	C	0.661604	0.353403	0.999998
22	C	0.657852	0.371976	0
23	N	0.633815	0.367633	0
24	C	0.686437	0.357876	3e-06
25	O	0.703898	0.379593	5e-06
26	C	0.692384	0.338497	6e-06
27	C	0.715237	0.343174	5e-06
28	N	0.734144	0.367883	0
29	C	0.67202	0.313501	4e-06
30	O	0.676745	0.296743	7e-06
31	C	0.646786	0.307906	0.999999
32	C	0.628834	0.285102	0.999998
33	N	0.632419	0.26486	0
34	H	0.672725	0.390057	1e-06
35	H	0.720045	0.329293	8e-06
36	H	0.610693	0.281846	0.999997
37	C	0.380841	0.61787	0
38	C	0.388029	0.610711	0.159966
39	C	0.400736	0.598176	0.110226
40	C	0.402773	0.596234	0.914388
41	C	0.414402	0.584782	0.813401
42	C	0.416415	0.58284	0.618359
43	C	0.429126	0.570307	0.569275
44	C	0.436741	0.562756	0.727066
45	C	0.450059	0.549616	0.725909
46	C	0.457638	0.542257	0.566822
47	C	0.470361	0.529667	0.613696
48	C	0.47243	0.52748	0.808399
49	C	0.48411	0.515882	0.907632
50	C	0.485987	0.51393	0.103122
51	C	0.498708	0.501334	0.1495
52	C	0.50612	0.494085	0.992867
53	C	0.518842	0.48149	0.039249
54	C	0.520721	0.479541	0.234741
55	C	0.532408	0.467948	0.333953
56	C	0.534563	0.46584	0.528649
57	C	0.547267	0.453229	0.575465
58	C	0.554745	0.445775	0.416335
59	C	0.568017	0.432588	0.41507
60	C	0.575566	0.42496	0.572774
61	C	0.588246	0.412405	0.523445
62	C	0.590309	0.410515	0.328337
63	C	0.602102	0.398874	0.232068
64	C	0.613491	0.387452	0.31786
65	C	0.623378	0.377745	0.183551
66	C	0.619159	0.38213	0
67	S	0.603765	0.397467	0.986834
68	S	0.576645	0.424191	0.20942
69	S	0.546026	0.454396	0.212289
70	S	0.507076	0.492961	0.360463
71	S	0.497751	0.502458	0.781915
72	S	0.458704	0.540931	0.930013
73	S	0.428142	0.571198	0.932713
74	S	0.388985	0.609899	0.794317
75	H	0.384531	0.614114	0.304901
76	H	0.408002	0.590959	0.215441
77	H	0.409159	0.590023	0.512811
78	H	0.43239	0.567116	0.423095
79	H	0.454342	0.54562	0.421209
80	H	0.477586	0.52262	0.506769
81	H	0.478772	0.52101	0.209751
82	H	0.52606	0.474411	0.93262
83	H	0.527415	0.472961	0.635586
84	H	0.550625	0.449923	0.721052
85	H	0.572265	0.428116	0.718942
86	H	0.595449	0.405161	0.628777
87	H	0.614805	0.385987	0.471019
88	H	0.632944	0.368182	0.221438
89	C	0.382056	0.764134	0
90	C	0.389204	0.778403	0.159966
91	C	0.401721	0.803509	0.110226
92	C	0.403659	0.807465	0.914388
93	C	0.415093	0.830421	0.813401
94	C	0.417033	0.834355	0.618359
95	C	0.429546	0.859462	0.569275
96	C	0.437085	0.874545	0.727066
97	C	0.450205	0.900859	0.725909
98	C	0.457553	0.915715	0.566822
99	C	0.470123	0.94089	0.613696
100	C	0.472308	0.945124	0.808399
101	C	0.483888	0.968275	0.907632
102	C	0.485838	0.972083	0.103122
103	C	0.498415	0.997263	0.1495
104	C	0.505653	0.011845	0.992867
105	C	0.518228	0.037024	0.039249
106	C	0.520175	0.040831	0.234741
107	C	0.531751	0.063984	0.333953
108	C	0.533855	0.068224	0.528649
109	C	0.546447	0.093402	0.575465
110	C	0.55389	0.108253	0.416335
111	C	0.567057	0.134567	0.41507
112	C	0.574674	0.149662	0.572774
113	C	0.58721	0.17476	0.523445
114	C	0.589097	0.178691	0.328337
115	C	0.60072	0.201998	0.232068
116	C	0.612126	0.224685	0.31786
117	C	0.621818	0.244172	0.183551
118	C	0.617438	0.235616	0
119	S	0.602123	0.205051	0.986834
120	S	0.575441	0.1515	0.20942
121	S	0.545282	0.091007	0.212289
122	S	0.506776	0.013913	0.360463
123	S	0.497292	0.995193	0.781915
124	S	0.458878	0.918095	0.930013
125	S	0.428657	0.857597	0.932713
126	S	0.390014	0.780161	0.794317
127	H	0.385807	0.771541	0.304901
128	H	0.408927	0.817913	0.215441
129	H	0.409861	0.819995	0.512811
130	H	0.432732	0.865881	0.423095
131	H	0.454194	0.909092	0.421209
132	H	0.47716	0.955085	0.506769
133	H	0.478769	0.957867	0.209751
134	H	0.525296	0.051243	0.93262
135	H	0.526744	0.054032	0.635586
136	H	0.549748	0.10003	0.721052
137	H	0.571524	0.14324	0.718942
138	H	0.594443	0.189129	0.628777
139	H	0.613588	0.227449	0.471019
140	H	0.631366	0.263198	0.221438
141	C	0.236726	0.61762	0
142	C	0.222389	0.61051	0.159966
143	C	0.197165	0.59794	0.110226
144	C	0.193191	0.595925	0.914388
145	C	0.170127	0.584421	0.813401
146	C	0.166175	0.58243	0.618359
147	C	0.140949	0.569856	0.569275
148	C	0.125795	0.562323	0.727066
149	C	0.099358	0.549149	0.725909
150	C	0.084431	0.541652	0.566822
151	C	0.059138	0.529067	0.613696
152	C	0.054884	0.527021	0.808399
153	C	0.031623	0.515467	0.907632
154	C	0.027798	0.513611	0.103122
155	C	0.002499	0.501027	0.1495
156	C	0.987849	0.493695	0.992867
157	C	0.962551	0.48111	0.039249
158	C	0.958726	0.479252	0.234741
159	C	0.935464	0.467692	0.333953
160	C	0.931204	0.46556	0.528649
161	C	0.905908	0.452994	0.575465
162	C	0.890987	0.445597	0.416335
163	C	0.864548	0.432469	0.41507
164	C	0.849382	0.425002	0.572774
165	C	0.824166	0.41246	0.523445
166	C	0.820216	0.410418	0.328337
167	C	0.7968	0.398752	0.232068
168	C	0.774006	0.387488	0.31786
169	C	0.754427	0.377707	0.183551
170	C	0.763024	0.381879	0
171	S	0.793733	0.397106	0.986834
172	S	0.847536	0.423934	0.20942
173	S	0.908313	0.454221	0.212289
174	S	0.98577	0.49275	0.360463
175	S	0.004579	0.501973	0.781915
176	S	0.08204	0.540598	0.930013
177	S	0.142823	0.57083	0.932713
178	S	0.220623	0.609564	0.794317
179	H	0.229284	0.61397	0.304901
180	H	0.182693	0.590752	0.215441
181	H	0.180602	0.589607	0.512811
182	H	0.1345	0.566627	0.423095
183	H	0.091086	0.544912	0.421209
184	H	0.044877	0.521919	0.506769
185	H	0.042081	0.520748	0.209751
186	H	0.948266	0.473971	0.93262
187	H	0.945463	0.472631	0.635586
188	H	0.899249	0.449672	0.721052
189	H	0.855834	0.428268	0.718942
190	H	0.809729	0.405334	0.628777
191	H	0.771228	0.386188	0.471019
192	H	0.735311	0.368244	0.221438
