data_C84H36N12O6S15_2023-05-15_14:25:55
#******************************************
#
# CIF file created by Zeo++
# Zeo++ is an open source package to
# analyze microporous materials
#
#*******************************************

_cell_length_a		47.77   
_cell_length_b		48.0685   
_cell_length_c		7   
_cell_angle_alpha		90   
_cell_angle_beta		90   
_cell_angle_gamma		119.729   

_symmetry_space_group_name_H-M		'P1'
_symmetry_Int_Tables_number		1
_symmetry_cell_setting		Monoclinic

loop_
_symmetry_equiv_pos_as_xyz
'+x,+y,+z'

loop_
_atom_site_label
_atom_site_type_symbol
_atom_site_fract_x
_atom_site_fract_y
_atom_site_fract_z
1	C	0.365776	0.673446	0.999995
2	O	0.39422	0.678431	0.999991
3	C	0.340077	0.640133	0.999998
4	C	0.345081	0.615579	0
5	N	0.376921	0.621321	0
6	C	0.307182	0.634221	3e-06
7	O	0.284085	0.605509	5e-06
8	C	0.299268	0.65984	6e-06
9	C	0.268998	0.653657	5e-06
10	N	0.243991	0.62099	0
11	C	0.326205	0.692886	4e-06
12	O	0.319915	0.71504	7e-06
13	C	0.359628	0.700283	0.999999
14	C	0.383374	0.730431	0.999998
15	N	0.378588	0.757192	0
16	H	0.325407	0.591676	1e-06
17	H	0.262604	0.672008	8e-06
18	H	0.407403	0.734736	0.999997
19	C	0.634224	0.326554	0.999995
20	O	0.60578	0.321569	0.999991
21	C	0.659923	0.359867	0.999998
22	C	0.654919	0.384421	0
23	N	0.623079	0.378679	0
24	C	0.692818	0.365779	3e-06
25	O	0.715915	0.394491	5e-06
26	C	0.700732	0.34016	6e-06
27	C	0.731002	0.346343	5e-06
28	N	0.756009	0.37901	0
29	C	0.673795	0.307114	4e-06
30	O	0.680085	0.28496	7e-06
31	C	0.640372	0.299717	0.999999
32	C	0.616626	0.269569	0.999998
33	N	0.621412	0.242808	0
34	H	0.674593	0.408324	1e-06
35	H	0.737396	0.327992	8e-06
36	H	0.592597	0.265264	0.999997
37	C	0.396364	0.602156	0
38	C	0.403877	0.594754	0.825483
39	S	0.424528	0.574399	0.849949
40	C	0.423488	0.575419	0.096187
41	C	0.437764	0.561345	0.218141
42	C	0.437968	0.561138	0.415336
43	C	0.454018	0.545316	0.492798
44	C	0.466134	0.533377	0.355468
45	C	0.484057	0.515709	0.375092
46	C	0.494907	0.505011	0.218526
47	C	0.512081	0.488082	0.234373
48	C	0.520721	0.479567	0.40893
49	C	0.538687	0.461856	0.42247
50	C	0.548816	0.45186	0.580424
51	C	0.565706	0.435213	0.533616
52	C	0.568539	0.432433	0.339292
53	C	0.584032	0.417163	0.240291
54	C	0.586842	0.414397	0.044889
55	C	0.603636	0.397844	0
56	C	0.613451	0.388167	0.157945
57	S	0.602219	0.399235	0.363183
58	S	0.550448	0.450275	0.218271
59	C	0.510536	0.489609	0.574575
60	N	0.515373	0.484844	0.758286
61	S	0.499038	0.500948	0.894096
62	N	0.484701	0.515079	0.729977
63	C	0.491918	0.507962	0.557393
64	S	0.457249	0.542141	0.132222
65	C	0.407397	0.591278	0.15543
66	H	0.398383	0.600171	0.68519
67	H	0.427158	0.571791	0.503548
68	H	0.456221	0.543139	0.645214
69	H	0.490141	0.509707	0.073087
70	H	0.51871	0.481544	0.09944
71	H	0.544609	0.455998	0.726924
72	H	0.575202	0.425845	0.640755
73	H	0.577262	0.423842	0.938799
74	H	0.626579	0.375227	0.164024
75	H	0.40372	0.594899	0.303936
76	C	0.397715	0.795523	0
77	C	0.405101	0.81033	0.825483
78	S	0.425416	0.851041	0.849949
79	C	0.424398	0.848997	0.096187
80	C	0.438443	0.877142	0.218141
81	C	0.438649	0.87755	0.415336
82	C	0.45444	0.909193	0.492798
83	C	0.466355	0.933075	0.355468
84	C	0.483988	0.968411	0.375092
85	C	0.494664	0.989804	0.218526
86	C	0.511559	0.023661	0.234373
87	C	0.520057	0.040693	0.40893
88	C	0.537732	0.076113	0.42247
89	C	0.547708	0.096094	0.580424
90	C	0.564321	0.129389	0.533616
91	C	0.567096	0.134962	0.339292
92	C	0.582335	0.165504	0.240291
93	C	0.585095	0.17104	0.044889
94	C	0.601615	0.204146	0
95	C	0.611272	0.223498	0.157945
96	S	0.600227	0.201359	0.363183
97	S	0.549289	0.099287	0.218271
98	C	0.510034	0.020611	0.574575
99	N	0.51479	0.030144	0.758286
100	S	0.498718	0.997938	0.894096
101	N	0.484616	0.969675	0.729977
102	C	0.491719	0.983907	0.557393
103	S	0.457608	0.915553	0.132222
104	C	0.408571	0.817277	0.15543
105	H	0.399695	0.799498	0.68519
106	H	0.428018	0.856242	0.503548
107	H	0.456613	0.913542	0.645214
108	H	0.489977	0.98041	0.073087
109	H	0.518083	0.036733	0.09944
110	H	0.543578	0.087809	0.726924
111	H	0.57367	0.148118	0.640755
112	H	0.57567	0.152152	0.938799
113	H	0.624186	0.249379	0.164024
114	H	0.404956	0.810031	0.303936
115	C	0.205421	0.601825	0
116	C	0.190521	0.594419	0.825483
117	S	0.149556	0.574063	0.849949
118	C	0.151613	0.575088	0.096187
119	C	0.123293	0.561016	0.218141
120	C	0.122882	0.560815	0.415336
121	C	0.091042	0.544994	0.492798
122	C	0.067011	0.533052	0.355468
123	C	0.031454	0.515384	0.375092
124	C	0.009928	0.504689	0.218526
125	C	0.97586	0.487761	0.234373
126	C	0.958722	0.479244	0.40893
127	C	0.923081	0.461535	0.42247
128	C	0.902975	0.45155	0.580424
129	C	0.869472	0.434901	0.533616
130	C	0.863865	0.432109	0.339292
131	C	0.833133	0.416837	0.240291
132	C	0.827562	0.414067	0.044889
133	C	0.794249	0.397513	0
134	C	0.774777	0.387839	0.157945
135	S	0.797054	0.39891	0.363183
136	S	0.899762	0.449941	0.218271
137	C	0.978929	0.489283	0.574575
138	N	0.969336	0.484515	0.758286
139	S	0.001744	0.500617	0.894096
140	N	0.030183	0.514749	0.729977
141	C	0.015862	0.507635	0.557393
142	S	0.084642	0.541809	0.132222
143	C	0.183531	0.590949	0.15543
144	H	0.201421	0.599834	0.68519
145	H	0.144323	0.571471	0.503548
146	H	0.086666	0.542822	0.645214
147	H	0.019381	0.509387	0.073087
148	H	0.962706	0.481226	0.09944
149	H	0.911312	0.455697	0.726924
150	H	0.850627	0.425541	0.640755
151	H	0.846568	0.42351	0.938799
152	H	0.748734	0.374898	0.164024
153	H	0.190823	0.594573	0.303936
