data_C105H51N9O6S18_2023-05-13_06:20:48
#******************************************
#
# CIF file created by Zeo++
# Zeo++ is an open source package to
# analyze microporous materials
#
#*******************************************

_cell_length_a		61.781   
_cell_length_b		62.0794   
_cell_length_c		7   
_cell_angle_alpha		90   
_cell_angle_beta		90   
_cell_angle_gamma		119.79   

_symmetry_space_group_name_H-M		'P1'
_symmetry_Int_Tables_number		1
_symmetry_cell_setting		Monoclinic

loop_
_symmetry_equiv_pos_as_xyz
'+x,+y,+z'

loop_
_atom_site_label
_atom_site_type_symbol
_atom_site_fract_x
_atom_site_fract_y
_atom_site_fract_z
1	C	0.358425	0.671919	0.999995
2	O	0.380424	0.675781	0.999991
3	C	0.338522	0.646109	0.999998
4	C	0.342368	0.627085	0
5	N	0.366993	0.631534	0
6	C	0.313082	0.641528	3e-06
7	O	0.295196	0.619283	5e-06
8	C	0.306987	0.661377	6e-06
9	C	0.283576	0.656587	5e-06
10	N	0.264209	0.631277	0
11	C	0.327847	0.686981	4e-06
12	O	0.323004	0.704146	7e-06
13	C	0.353697	0.692712	0.999999
14	C	0.372087	0.71607	0.999998
15	N	0.368412	0.736804	0
16	H	0.327133	0.608565	1e-06
17	H	0.278649	0.670805	8e-06
18	H	0.390671	0.719405	0.999997
19	C	0.641575	0.328081	0.999995
20	O	0.619576	0.324219	0.999991
21	C	0.661478	0.353891	0.999998
22	C	0.657632	0.372915	0
23	N	0.633007	0.368466	0
24	C	0.686918	0.358472	3e-06
25	O	0.704804	0.380717	5e-06
26	C	0.693013	0.338623	6e-06
27	C	0.716424	0.343413	5e-06
28	N	0.735791	0.368723	0
29	C	0.672153	0.313019	4e-06
30	O	0.676996	0.295854	7e-06
31	C	0.646303	0.307288	0.999999
32	C	0.627913	0.28393	0.999998
33	N	0.631588	0.263196	0
34	H	0.672867	0.391435	1e-06
35	H	0.721351	0.329195	8e-06
36	H	0.609329	0.280595	0.999997
37	C	0.382008	0.616685	0
38	C	0.397415	0.606655	0.997575
39	C	0.392968	0.590745	0.158145
40	C	0.407283	0.576161	0.200609
41	C	0.40291	0.560848	0.355269
42	C	0.418773	0.550206	0.355284
43	C	0.434914	0.557615	0.200902
44	C	0.453456	0.550564	0.155091
45	C	0.470153	0.558618	0.004364
46	C	0.485751	0.54771	0.003069
47	C	0.4809	0.531557	0.153595
48	C	0.492743	0.516727	0.198906
49	C	0.49932	0.505558	0.05433
50	C	0.510786	0.491646	0.099325
51	C	0.515641	0.48914	0.289717
52	C	0.527595	0.475002	0.35583
53	C	0.532104	0.470862	0.542191
54	C	0.544104	0.456366	0.55531
55	C	0.548799	0.449637	0.378559
56	C	0.560553	0.434842	0.342236
57	C	0.562366	0.418636	0.468369
58	C	0.575328	0.407003	0.38991
59	C	0.583206	0.414696	0.205803
60	C	0.598079	0.405276	0.080749
61	C	0.605819	0.413299	0.896295
62	S	0.621537	0.399721	0.797863
63	C	0.617992	0.383315	0
64	C	0.605242	0.387707	0.141098
65	S	0.574891	0.435675	0.129921
66	S	0.538246	0.461015	0.200097
67	N	0.509516	0.499846	0.432866
68	C	0.498391	0.513224	0.384757
69	S	0.457219	0.52972	0.292661
70	S	0.430319	0.577551	0.058155
71	C	0.374334	0.589556	0.274205
72	S	0.362426	0.607483	0.189683
73	H	0.411112	0.610476	0.886977
74	H	0.389125	0.557167	0.464736
75	H	0.418135	0.537642	0.465448
76	H	0.471381	0.571842	0.897852
77	H	0.500013	0.551813	0.896528
78	H	0.495419	0.507308	0.905414
79	H	0.515587	0.483044	0.984573
80	H	0.526939	0.47806	0.664459
81	H	0.549157	0.451388	0.689617
82	H	0.55462	0.415007	0.611295
83	H	0.578511	0.393722	0.467089
84	H	0.60316	0.42645	0.812698
85	H	0.601284	0.378818	0.279636
86	H	0.494268	0.521489	0.506292
87	H	0.36689	0.579168	0.40473
88	C	0.383237	0.766502	0
89	C	0.39323	0.79179	0.997575
90	C	0.409201	0.803217	0.158145
91	C	0.423765	0.831955	0.200609
92	C	0.439137	0.84286	0.355269
93	C	0.449742	0.869211	0.355284
94	C	0.442244	0.877863	0.200902
95	C	0.449236	0.903299	0.155091
96	C	0.44109	0.911861	0.004364
97	C	0.451961	0.938213	0.003069
98	C	0.468179	0.949479	0.153595
99	C	0.483	0.976009	0.198906
100	C	0.49417	0.993662	0.05433
101	C	0.508072	0.018903	0.099325
102	C	0.510565	0.026219	0.289717
103	C	0.52469	0.052168	0.35583
104	C	0.528823	0.060769	0.542191
105	C	0.543307	0.087121	0.55531
106	C	0.550034	0.098484	0.378559
107	C	0.56482	0.12489	0.342236
108	C	0.581063	0.142828	0.468369
109	C	0.592673	0.167284	0.38991
110	C	0.584925	0.167448	0.205803
111	C	0.594308	0.191599	0.080749
112	C	0.58623	0.191295	0.896295
113	S	0.599779	0.220425	0.797863
114	C	0.616244	0.233242	0
115	C	0.611894	0.216207	0.141098
116	S	0.563925	0.1383	0.129921
117	S	0.53867	0.076674	0.200097
118	N	0.499855	0.009475	0.432866
119	C	0.486488	0.985105	0.384757
120	S	0.470121	0.927792	0.292661
121	S	0.422274	0.853448	0.058155
122	C	0.410472	0.785895	0.274205
123	S	0.392547	0.756219	0.189683
124	H	0.38934	0.801587	0.886977
125	H	0.442887	0.832837	0.464736
126	H	0.462343	0.881089	0.465448
127	H	0.427825	0.899912	0.897852
128	H	0.447787	0.94829	0.896528
129	H	0.492432	0.988045	0.905414
130	H	0.516677	0.032236	0.984573
131	H	0.521627	0.048473	0.664459
132	H	0.548277	0.097096	0.689617
133	H	0.584734	0.138749	0.611295
134	H	0.605976	0.18367	0.467089
135	H	0.573055	0.175559	0.812698
136	H	0.620824	0.221126	0.279636
137	H	0.478217	0.972781	0.506292
138	H	0.42092	0.788846	0.40473
139	C	0.234367	0.616428	0
140	C	0.208968	0.60117	0.997575
141	C	0.197443	0.605653	0.158145
142	C	0.168565	0.591499	0.200609
143	C	0.157566	0.595906	0.355269
144	C	0.131098	0.580198	0.355284
145	C	0.122455	0.564136	0.200902
146	C	0.09692	0.545752	0.155091
147	C	0.08837	0.529137	0.004364
148	C	0.0619	0.513692	0.003069
149	C	0.050534	0.518579	0.153595
150	C	0.02387	0.50688	0.198906
151	C	0.006122	0.500395	0.05433
152	C	0.980754	0.489067	0.099325
153	C	0.973407	0.484256	0.289717
154	C	0.947328	0.472445	0.35583
155	C	0.938686	0.467984	0.542191
156	C	0.912202	0.456128	0.55531
157	C	0.90078	0.451494	0.378559
158	C	0.87424	0.439883	0.342236
159	C	0.856184	0.438152	0.468369
160	C	0.831613	0.425328	0.38991
161	C	0.831482	0.417472	0.205803
162	C	0.807225	0.402741	0.080749
163	C	0.807564	0.395021	0.896295
164	S	0.778297	0.379469	0.797863
165	C	0.765376	0.383058	0
166	C	0.782476	0.395702	0.141098
167	S	0.860797	0.425641	0.129921
168	S	0.922696	0.461926	0.200097
169	N	0.990242	0.490294	0.432866
170	C	0.014734	0.501286	0.384757
171	S	0.072273	0.542104	0.292661
172	S	0.14702	0.568616	0.058155
173	C	0.214806	0.624164	0.274205
174	S	0.244639	0.635914	0.189683
175	H	0.199161	0.587552	0.886977
176	H	0.1676	0.609611	0.464736
177	H	0.119135	0.580885	0.465448
178	H	0.100407	0.527861	0.897852
179	H	0.051813	0.499512	0.896528
180	H	0.011762	0.504262	0.905414
181	H	0.967349	0.484335	0.984573
182	H	0.951047	0.473083	0.664459
183	H	0.902179	0.451131	0.689617
184	H	0.860259	0.445859	0.611295
185	H	0.815126	0.422223	0.467089
186	H	0.823398	0.397606	0.812698
187	H	0.777505	0.39967	0.279636
188	H	0.027127	0.505345	0.506292
189	H	0.211803	0.631601	0.40473
