data_C120H60N12O6S18_2023-05-13_09:31:10
#******************************************
#
# CIF file created by Zeo++
# Zeo++ is an open source package to
# analyze microporous materials
#
#*******************************************

_cell_length_a		62.2429   
_cell_length_b		62.5413   
_cell_length_c		7   
_cell_angle_alpha		90   
_cell_angle_beta		90   
_cell_angle_gamma		119.792   

_symmetry_space_group_name_H-M		'P1'
_symmetry_Int_Tables_number		1
_symmetry_cell_setting		Monoclinic

loop_
_symmetry_equiv_pos_as_xyz
'+x,+y,+z'

loop_
_atom_site_label
_atom_site_type_symbol
_atom_site_fract_x
_atom_site_fract_y
_atom_site_fract_z
1	C	0.358239	0.67188	0.999995
2	O	0.380074	0.675714	0.999991
3	C	0.338483	0.646261	0.999998
4	C	0.3423	0.627377	0
5	N	0.366742	0.631793	0
6	C	0.313232	0.641713	3e-06
7	O	0.295477	0.619632	5e-06
8	C	0.307183	0.661416	6e-06
9	C	0.283945	0.656662	5e-06
10	N	0.264721	0.631538	0
11	C	0.327888	0.686831	4e-06
12	O	0.323082	0.703869	7e-06
13	C	0.353547	0.69252	0.999999
14	C	0.371801	0.715706	0.999998
15	N	0.368153	0.736287	0
16	H	0.327177	0.608994	1e-06
17	H	0.279055	0.670774	8e-06
18	H	0.390247	0.719016	0.999997
19	C	0.641761	0.32812	0.999995
20	O	0.619926	0.324286	0.999991
21	C	0.661517	0.353739	0.999998
22	C	0.6577	0.372623	0
23	N	0.633258	0.368207	0
24	C	0.686768	0.358287	3e-06
25	O	0.704523	0.380368	5e-06
26	C	0.692817	0.338584	6e-06
27	C	0.716055	0.343338	5e-06
28	N	0.735279	0.368462	0
29	C	0.672112	0.313169	4e-06
30	O	0.676918	0.296131	7e-06
31	C	0.646453	0.30748	0.999999
32	C	0.628199	0.284294	0.999998
33	N	0.631847	0.263713	0
34	H	0.672823	0.391006	1e-06
35	H	0.720945	0.329226	8e-06
36	H	0.609753	0.280984	0.999997
37	C	0.618355	0.382947	0
38	C	0.606232	0.389315	0.868405
39	S	0.588664	0.399787	0.977647
40	C	0.59741	0.395893	0.202801
41	C	0.58843	0.401493	0.376004
42	C	0.587816	0.392193	0.556308
43	C	0.578014	0.401474	0.697355
44	C	0.57127	0.417785	0.623299
45	C	0.560935	0.430528	0.728409
46	C	0.562274	0.434489	0.923523
47	C	0.550013	0.447489	0.983251
48	C	0.539526	0.453364	0.832819
49	C	0.525314	0.466329	0.837281
50	C	0.508725	0.462374	0.985335
51	C	0.495499	0.475036	0.988299
52	C	0.498985	0.491742	0.843038
53	C	0.485529	0.505757	0.83873
54	C	0.488885	0.522305	0.692514
55	C	0.475842	0.53515	0.695936
56	C	0.459421	0.531385	0.844818
57	C	0.445461	0.544557	0.858156
58	C	0.440154	0.553983	0.018473
59	C	0.425862	0.565484	0.975625
60	C	0.420483	0.564716	0.783267
61	C	0.40632	0.574612	0.693787
62	C	0.388386	0.578235	0.7795
63	C	0.378118	0.588686	0.65284
64	C	0.388393	0.593041	0.471966
65	C	0.382676	0.603569	0.308351
66	C	0.391037	0.605536	0.122015
67	C	0.381645	0.617053	0
68	C	0.366409	0.623723	0.091357
69	S	0.3634	0.61594	0.327693
70	S	0.410386	0.58412	0.460399
71	S	0.432658	0.549607	0.65844
72	C	0.457167	0.514542	0.984453
73	N	0.469629	0.501849	0.985422
74	N	0.515159	0.495945	0.697956
75	C	0.527715	0.483333	0.698561
76	S	0.54451	0.442635	0.621661
77	S	0.577233	0.4216	0.382717
78	C	0.613456	0.386575	0.191384
79	H	0.606706	0.388391	0.714377
80	H	0.593908	0.379081	0.587394
81	H	0.57591	0.396115	0.846314
82	H	0.571773	0.428523	0.02093
83	H	0.549189	0.452449	0.13032
84	H	0.505671	0.449309	0.098957
85	H	0.482532	0.471767	0.103555
86	H	0.501645	0.52535	0.576114
87	H	0.478932	0.54816	0.581809
88	H	0.446418	0.552992	0.160923
89	H	0.42009	0.574157	0.082208
90	H	0.382594	0.573509	0.926722
91	H	0.363757	0.592712	0.694984
92	H	0.403339	0.598973	0.075388
93	H	0.356896	0.632718	0.032269
94	H	0.444648	0.510359	0.104765
95	H	0.540446	0.487835	0.579341
96	H	0.621401	0.382714	0.315176
97	C	0.616615	0.23398	0
98	C	0.610281	0.215599	0.868405
99	S	0.599854	0.187722	0.977647
100	C	0.603722	0.200286	0.202801
101	C	0.598144	0.185791	0.376004
102	C	0.607472	0.194442	0.556308
103	C	0.598207	0.175465	0.697355
104	C	0.58188	0.152525	0.623299
105	C	0.569147	0.129572	0.728409
106	C	0.56517	0.126957	0.923523
107	C	0.552186	0.101834	0.983251
108	C	0.546339	0.085569	0.832819
109	C	0.533399	0.058544	0.837281
110	C	0.537434	0.046006	0.985335
111	C	0.524793	0.020262	0.988299
112	C	0.508027	0.007089	0.843038
113	C	0.494031	0.979768	0.83873
114	C	0.477424	0.966623	0.692514
115	C	0.464599	0.940877	0.695936
116	C	0.468444	0.928319	0.844818
117	C	0.455294	0.901337	0.858156
118	C	0.445865	0.88668	0.018473
119	C	0.434393	0.861033	0.975625
120	C	0.435186	0.856456	0.783267
121	C	0.425323	0.832535	0.693787
122	C	0.421765	0.811117	0.7795
123	C	0.411329	0.790512	0.65284
124	C	0.406919	0.796379	0.471966
125	C	0.396387	0.780218	0.308351
126	C	0.394379	0.786563	0.122015
127	C	0.38287	0.765766	0
128	C	0.376247	0.743993	0.091357
129	S	0.384063	0.748755	0.327693
130	S	0.415772	0.827105	0.460399
131	S	0.450285	0.883593	0.65844
132	C	0.485341	0.942852	0.984453
133	N	0.498017	0.967869	0.985422
134	N	0.503745	0.018966	0.697956
135	C	0.516339	0.043996	0.698561
136	S	0.557076	0.101202	0.621661
137	S	0.57803	0.154648	0.382717
138	C	0.612998	0.225501	0.191384
139	H	0.611206	0.21699	0.714377
140	H	0.620594	0.21355	0.587394
141	H	0.60359	0.178713	0.846314
142	H	0.571111	0.142331	0.02093
143	H	0.547216	0.096077	0.13032
144	H	0.550547	0.055983	0.098957
145	H	0.528125	0.010639	0.103555
146	H	0.474318	0.976264	0.576114
147	H	0.451541	0.930991	0.581809
148	H	0.446832	0.893888	0.160923
149	H	0.425721	0.846664	0.082208
150	H	0.426528	0.81007	0.926722
151	H	0.407352	0.772239	0.694984
152	H	0.400909	0.805316	0.075388
153	H	0.367267	0.725588	0.032269
154	H	0.489588	0.934584	0.104765
155	H	0.511771	0.052156	0.579341
156	H	0.616836	0.237236	0.315176
157	C	0.764645	0.382692	0
158	C	0.783102	0.394705	0.868405
159	S	0.811097	0.412108	0.977647
160	C	0.798483	0.403439	0.202801
161	C	0.813041	0.412334	0.376004
162	C	0.804328	0.412983	0.556308
163	C	0.823394	0.422678	0.697355
164	C	0.846465	0.429308	0.623299
165	C	0.869533	0.439519	0.728409
166	C	0.872172	0.438173	0.923523
167	C	0.897417	0.450295	0.983251
168	C	0.913751	0.460686	0.832819
169	C	0.940903	0.474745	0.837281
170	C	0.953457	0.491238	0.985335
171	C	0.979323	0.50432	0.988299
172	C	0.992603	0.500788	0.843038
173	C	0.020055	0.514093	0.83873
174	C	0.033306	0.51069	0.692514
175	C	0.059175	0.523591	0.695936
176	C	0.071751	0.539915	0.844818
177	C	0.098861	0.553724	0.858156
178	C	0.113596	0.558955	0.018473
179	C	0.139361	0.573101	0.975625
180	C	0.143947	0.578446	0.783267
181	C	0.167973	0.592471	0.693787
182	C	0.189465	0.610267	0.7795
183	C	0.210169	0.62042	0.65284
184	C	0.204304	0.610198	0.471966
185	C	0.220553	0.615831	0.308351
186	C	0.214199	0.607519	0.122015
187	C	0.2351	0.616799	0
188	C	0.25696	0.631903	0.091357
189	S	0.252153	0.634923	0.327693
190	S	0.173458	0.588393	0.460399
191	S	0.116673	0.566418	0.65844
192	C	0.057108	0.542224	0.984453
193	N	0.03197	0.529901	0.985422
194	N	0.980711	0.484707	0.697956
195	C	0.955562	0.47229	0.698561
196	S	0.89803	0.455781	0.621661
197	S	0.844353	0.42337	0.382717
198	C	0.773162	0.387542	0.191384
199	H	0.781704	0.394238	0.714377
200	H	0.785114	0.406987	0.587394
201	H	0.820116	0.424791	0.846314
202	H	0.856732	0.428764	0.02093
203	H	0.90321	0.451092	0.13032
204	H	0.943398	0.494326	0.098957
205	H	0.988959	0.517212	0.103555
206	H	0.023652	0.498005	0.576114
207	H	0.069143	0.520467	0.581809
208	H	0.106365	0.552738	0.160923
209	H	0.153804	0.578797	0.082208
210	H	0.190494	0.616039	0.926722
211	H	0.228507	0.634667	0.694984
212	H	0.195368	0.595329	0.075388
213	H	0.275452	0.641312	0.032269
214	H	0.06538	0.554675	0.104765
215	H	0.947398	0.459627	0.579341
216	H	0.761379	0.379668	0.315176
