data_C72H36N12O6S6_2023-05-29_18:28:16
#******************************************
#
# CIF file created by Zeo++
# Zeo++ is an open source package to
# analyze microporous materials
#
#*******************************************

_cell_length_a		42.8741   
_cell_length_b		43.1726   
_cell_length_c		7   
_cell_angle_alpha		90   
_cell_angle_beta		90   
_cell_angle_gamma		119.698   

_symmetry_space_group_name_H-M		'P1'
_symmetry_Int_Tables_number		1
_symmetry_cell_setting		Monoclinic

loop_
_symmetry_equiv_pos_as_xyz
'+x,+y,+z'

loop_
_atom_site_label
_atom_site_type_symbol
_atom_site_fract_x
_atom_site_fract_y
_atom_site_fract_z
1	C	0.369476	0.674212	0.999995
2	O	0.401165	0.679761	0.999991
3	C	0.340865	0.637134	0.999998
4	C	0.346458	0.609803	0
5	N	0.38193	0.616195	0
6	C	0.304219	0.630552	3e-06
7	O	0.278504	0.598594	5e-06
8	C	0.295383	0.659068	6e-06
9	C	0.26166	0.652187	5e-06
10	N	0.23382	0.615826	0
11	C	0.325373	0.69585	4e-06
12	O	0.318349	0.720509	7e-06
13	C	0.362608	0.704084	0.999999
14	C	0.389044	0.73764	0.999998
15	N	0.383693	0.767427	0
16	H	0.324554	0.583198	1e-06
17	H	0.254523	0.672611	8e-06
18	H	0.415814	0.742431	0.999997
19	C	0.630524	0.325788	0.999995
20	O	0.598835	0.320239	0.999991
21	C	0.659135	0.362866	0.999998
22	C	0.653542	0.390197	0
23	N	0.61807	0.383805	0
24	C	0.695781	0.369448	3e-06
25	O	0.721496	0.401406	5e-06
26	C	0.704617	0.340932	6e-06
27	C	0.73834	0.347813	5e-06
28	N	0.76618	0.384174	0
29	C	0.674627	0.30415	4e-06
30	O	0.681651	0.279491	7e-06
31	C	0.637392	0.295916	0.999999
32	C	0.610956	0.26236	0.999998
33	N	0.616307	0.232573	0
34	H	0.675446	0.416802	1e-06
35	H	0.745477	0.327389	8e-06
36	H	0.584186	0.257569	0.999997
37	C	0.596394	0.405138	0
38	C	0.580405	0.420871	0.909838
39	C	0.565825	0.435218	0.049509
40	C	0.546602	0.454136	0.025316
41	N	0.534446	0.466115	0.163933
42	C	0.517028	0.483249	0.091506
43	C	0.500992	0.499044	0.198382
44	C	0.484209	0.515551	0.106731
45	C	0.482969	0.516747	0.908496
46	C	0.499005	0.500953	0.80162
47	C	0.515789	0.484446	0.893271
48	S	0.537199	0.463364	0.798323
49	N	0.46555	0.533881	0.836069
50	C	0.453395	0.545861	0.974686
51	C	0.434171	0.564778	0.950492
52	C	0.426651	0.572158	0.77485
53	C	0.406349	0.592139	0.7883
54	C	0.403606	0.594862	0
55	C	0.419599	0.579133	0.090163
56	S	0.462799	0.536634	0.201679
57	C	0.573336	0.427829	0.225151
58	C	0.59364	0.407849	0.2117
59	H	0.578482	0.422763	0.757002
60	H	0.501841	0.498226	0.353325
61	H	0.498156	0.501771	0.646676
62	H	0.434001	0.564909	0.641219
63	H	0.421455	0.618402	0.72125
64	H	0.379908	0.577015	0.721342
65	H	0.42153	0.57725	0.242999
66	H	0.565978	0.43507	0.358782
67	H	0.57853	0.381583	0.278705
68	H	0.620076	0.422969	0.278703
69	C	0.594275	0.189541	0
70	C	0.578578	0.158073	0.909838
71	C	0.564262	0.129377	0.049509
72	C	0.545388	0.091542	0.025316
73	N	0.533435	0.0676	0.163933
74	C	0.516339	0.033324	0.091506
75	C	0.50058	0.001748	0.198382
76	C	0.48411	0.968725	0.106731
77	C	0.482917	0.966308	0.908496
78	C	0.498676	0.997884	0.80162
79	C	0.515145	0.030907	0.893271
80	S	0.53618	0.07306	0.798323
81	N	0.465821	0.932032	0.836069
82	C	0.453868	0.90809	0.974686
83	C	0.434994	0.870255	0.950492
84	C	0.42763	0.855474	0.77485
85	C	0.407694	0.815513	0.7883
86	C	0.404977	0.810091	0
87	C	0.42067	0.841559	0.090163
88	S	0.463074	0.926572	0.201679
89	C	0.571635	0.144158	0.225151
90	C	0.591571	0.184119	0.2117
91	H	0.57669	0.154289	0.757002
92	H	0.501396	0.003402	0.353325
93	H	0.49786	0.99623	0.646676
94	H	0.434863	0.869956	0.641219
95	H	0.381237	0.804366	0.72125
96	H	0.423038	0.804367	0.721342
97	H	0.422549	0.845343	0.242999
98	H	0.56441	0.129676	0.358782
99	H	0.618031	0.195266	0.278705
100	H	0.57623	0.195265	0.278703
101	C	0.808773	0.404769	0
102	C	0.84046	0.420504	0.909838
103	C	0.869355	0.434852	0.049509
104	C	0.907453	0.45377	0.025316
105	N	0.931561	0.465732	0.163933
106	C	0.966075	0.482874	0.091506
107	C	0.997871	0.498655	0.198382
108	C	0.031124	0.515172	0.106731
109	C	0.033557	0.516392	0.908496
110	C	0.001761	0.50061	0.80162
111	C	0.968509	0.484094	0.893271
112	S	0.926063	0.463023	0.798323
113	N	0.068071	0.533534	0.836069
114	C	0.09218	0.545496	0.974686
115	C	0.130277	0.564415	0.950492
116	C	0.145161	0.571815	0.77485
117	C	0.1854	0.591795	0.7883
118	C	0.190859	0.594494	0
119	C	0.159173	0.578755	0.090163
120	S	0.073569	0.536241	0.201679
121	C	0.854471	0.427461	0.225151
122	C	0.814232	0.407479	0.2117
123	H	0.84427	0.422396	0.757002
124	H	0.996205	0.497819	0.353325
125	H	0.003427	0.501447	0.646676
126	H	0.130578	0.564582	0.641219
127	H	0.196751	0.576679	0.72125
128	H	0.196496	0.618065	0.721342
129	H	0.155363	0.576854	0.242999
130	H	0.869054	0.434701	0.358782
131	H	0.802881	0.422599	0.278705
132	H	0.803136	0.381213	0.278703
