data_C138H66N6O6S18_2023-05-12_21:19:10
#******************************************
#
# CIF file created by Zeo++
# Zeo++ is an open source package to
# analyze microporous materials
#
#*******************************************

_cell_length_a		67.9633   
_cell_length_b		68.2617   
_cell_length_c		7   
_cell_angle_alpha		90   
_cell_angle_beta		90   
_cell_angle_gamma		119.809   

_symmetry_space_group_name_H-M		'P1'
_symmetry_Int_Tables_number		1
_symmetry_cell_setting		Monoclinic

loop_
_symmetry_equiv_pos_as_xyz
'+x,+y,+z'

loop_
_atom_site_label
_atom_site_type_symbol
_atom_site_fract_x
_atom_site_fract_y
_atom_site_fract_z
1	C	0.356145	0.671444	0.999995
2	O	0.376143	0.674957	0.999991
3	C	0.338043	0.647968	0.999998
4	C	0.341532	0.630663	0
5	N	0.363918	0.63471	0
6	C	0.314915	0.643801	3e-06
7	O	0.298648	0.623566	5e-06
8	C	0.309382	0.661855	6e-06
9	C	0.288098	0.657498	5e-06
10	N	0.270484	0.634476	0
11	C	0.328353	0.685144	4e-06
12	O	0.323957	0.700758	7e-06
13	C	0.351854	0.690358	0.999999
14	C	0.368579	0.711604	0.999998
15	N	0.365245	0.730464	0
16	H	0.327676	0.613817	1e-06
17	H	0.283625	0.670431	8e-06
18	H	0.385473	0.714638	0.999997
19	C	0.643855	0.328556	0.999995
20	O	0.623857	0.325043	0.999991
21	C	0.661957	0.352032	0.999998
22	C	0.658468	0.369337	0
23	N	0.636082	0.36529	0
24	C	0.685085	0.356199	3e-06
25	O	0.701352	0.376434	5e-06
26	C	0.690618	0.338145	6e-06
27	C	0.711902	0.342502	5e-06
28	N	0.729516	0.365524	0
29	C	0.671647	0.314856	4e-06
30	O	0.676043	0.299242	7e-06
31	C	0.648146	0.309642	0.999999
32	C	0.631421	0.288396	0.999998
33	N	0.634755	0.269536	0
34	H	0.672324	0.386183	1e-06
35	H	0.716375	0.329569	8e-06
36	H	0.614527	0.285362	0.999997
37	C	0.622437	0.378797	0
38	C	0.616511	0.390541	0.876478
39	C	0.609097	0.403868	0.977906
40	C	0.609722	0.401869	0.174898
41	C	0.603585	0.412934	0.321103
42	C	0.605362	0.41187	0.517592
43	C	0.597856	0.42514	0.618285
44	C	0.590193	0.435989	0.497816
45	C	0.581767	0.450874	0.553554
46	C	0.587985	0.464489	0.713826
47	C	0.576642	0.477285	0.726968
48	C	0.561823	0.473107	0.577121
49	C	0.547012	0.482713	0.541433
50	C	0.534708	0.485	0.692136
51	C	0.52029	0.493964	0.662307
52	C	0.507859	0.496143	0.812285
53	C	0.493501	0.504972	0.779856
54	C	0.491123	0.511797	0.596448
55	C	0.476663	0.520614	0.561271
56	C	0.474008	0.527274	0.377517
57	C	0.458336	0.536163	0.346979
58	C	0.439911	0.532741	0.456256
59	C	0.428843	0.544318	0.384466
60	C	0.438779	0.556417	0.219695
61	C	0.431996	0.569929	0.107395
62	C	0.439756	0.579413	0.929125
63	C	0.429212	0.591664	0.860865
64	C	0.413659	0.591567	0.988434
65	C	0.399947	0.602135	0.961827
66	C	0.392537	0.606101	0.789175
67	C	0.379496	0.617139	0.811292
68	C	0.377563	0.621203	0
69	S	0.390938	0.612088	0.148683
70	S	0.412009	0.576353	0.188534
71	S	0.461779	0.553709	0.15812
72	C	0.486477	0.524994	0.227678
73	C	0.501244	0.516442	0.258405
74	C	0.513775	0.51439	0.108556
75	C	0.528309	0.505775	0.141083
76	C	0.530591	0.498835	0.32415
77	C	0.544945	0.489907	0.358617
78	C	0.518152	0.500847	0.476876
79	C	0.503515	0.509727	0.443937
80	S	0.561689	0.453405	0.424523
81	S	0.592538	0.430051	0.263694
82	S	0.619285	0.383448	0.232204
83	H	0.617319	0.389771	0.72231
84	H	0.603634	0.414488	0.907463
85	H	0.611903	0.402152	0.588746
86	H	0.597978	0.426392	0.772785
87	H	0.600407	0.465599	0.816777
88	H	0.579482	0.489191	0.840541
89	H	0.536135	0.479462	0.834694
90	H	0.509176	0.490916	0.956391
91	H	0.484061	0.50635	0.899687
92	H	0.467458	0.522383	0.680927
93	H	0.434277	0.522244	0.582871
94	H	0.414088	0.54349	0.452003
95	H	0.452452	0.577744	0.848559
96	H	0.433166	0.600263	0.724326
97	H	0.396156	0.601185	0.65224
98	H	0.372069	0.621706	0.694845
99	H	0.484738	0.529772	0.082991
100	H	0.512386	0.519517	0.96425
101	H	0.537838	0.504518	0.021275
102	H	0.55468	0.48861	0.240665
103	C	0.620796	0.24229	0
104	C	0.609046	0.224702	0.876478
105	C	0.595714	0.204058	0.977906
106	C	0.597716	0.206671	0.174898
107	C	0.586647	0.189549	0.321103
108	C	0.587707	0.192375	0.517592
109	C	0.574434	0.171698	0.618285
110	C	0.563587	0.153275	0.497816
111	C	0.548698	0.130075	0.553554
112	C	0.535025	0.12269	0.713826
113	C	0.522241	0.098672	0.726968
114	C	0.526487	0.088109	0.577121
115	C	0.516914	0.063821	0.541433
116	C	0.514668	0.049316	0.692136
117	C	0.505737	0.026059	0.662307
118	C	0.503601	0.011536	0.812285
119	C	0.494805	0.988472	0.779856
120	C	0.487972	0.97931	0.596448
121	C	0.47919	0.956159	0.561271
122	C	0.472523	0.946886	0.377517
123	C	0.463672	0.922456	0.346979
124	C	0.467174	0.907557	0.456256
125	C	0.45561	0.885025	0.384466
126	C	0.443443	0.882846	0.219695
127	C	0.429924	0.862646	0.107395
128	C	0.420387	0.86091	0.929125
129	C	0.408146	0.838227	0.860865
130	C	0.408304	0.82287	0.988434
131	C	0.397762	0.798715	0.961827
132	C	0.393815	0.787402	0.789175
133	C	0.382799	0.763446	0.811292
134	C	0.378733	0.757477	0
135	S	0.387819	0.779848	0.148683
136	S	0.423561	0.836384	0.188534
137	S	0.44607	0.9084	0.15812
138	C	0.474761	0.961547	0.227678
139	C	0.483277	0.984741	0.258405
140	C	0.485286	0.999237	0.108556
141	C	0.493866	0.022261	0.141083
142	C	0.500815	0.031443	0.32415
143	C	0.50971	0.0546	0.358617
144	C	0.498846	0.017078	0.476876
145	C	0.49	0.993687	0.443937
146	S	0.546238	0.107602	0.424523
147	S	0.56953	0.161521	0.263694
148	S	0.616146	0.234524	0.232204
149	H	0.609815	0.226272	0.72231
150	H	0.58509	0.188051	0.907463
151	H	0.597424	0.208556	0.588746
152	H	0.573178	0.170572	0.772785
153	H	0.533865	0.133929	0.816777
154	H	0.510295	0.089634	0.840541
155	H	0.520214	0.056251	0.834694
156	H	0.508835	0.018051	0.956391
157	H	0.49346	0.977719	0.899687
158	H	0.477452	0.945249	0.680927
159	H	0.477718	0.912415	0.582871
160	H	0.456497	0.871188	0.452003
161	H	0.422012	0.875188	0.848559
162	H	0.399511	0.833591	0.724326
163	H	0.398729	0.795895	0.65224
164	H	0.37825	0.751517	0.694845
165	H	0.469978	0.95506	0.082991
166	H	0.480152	0.99275	0.96425
167	H	0.49509	0.032983	0.021275
168	H	0.510972	0.065566	0.240665
169	C	0.756415	0.378564	0
170	C	0.774091	0.384407	0.876478
171	C	0.794836	0.391723	0.977906
172	C	0.79221	0.39111	0.174898
173	C	0.809416	0.397167	0.321103
174	C	0.806579	0.395405	0.517592
175	C	0.827359	0.402813	0.618285
176	C	0.845868	0.410385	0.497816
177	C	0.869183	0.418702	0.553554
178	C	0.876638	0.412471	0.713826
179	C	0.900765	0.423693	0.726968
180	C	0.911338	0.438435	0.577121
181	C	0.935723	0.453116	0.541433
182	C	0.950272	0.465334	0.692136
183	C	0.973621	0.479627	0.662307
184	C	0.988188	0.491971	0.812285
185	C	0.011342	0.506206	0.779856
186	C	0.020553	0.508542	0.596448
187	C	0.043795	0.522878	0.561271
188	C	0.053117	0.52549	0.377517
189	C	0.07764	0.54103	0.346979
190	C	0.092563	0.559352	0.456256
191	C	0.115195	0.570306	0.384466
192	C	0.117426	0.560387	0.219695
193	C	0.137728	0.567075	0.107395
194	C	0.139505	0.559328	0.929125
195	C	0.16229	0.569758	0.860865
196	C	0.177685	0.585213	0.988434
197	C	0.201939	0.598799	0.961827
198	C	0.213296	0.606147	0.789175
199	C	0.237353	0.619064	0.811292
200	C	0.243352	0.62097	0
201	S	0.220892	0.607714	0.148683
202	S	0.164079	0.586912	0.188534
203	S	0.091799	0.537541	0.15812
204	C	0.03841	0.513109	0.227678
205	C	0.015127	0.498467	0.258405
206	C	0.000587	0.486023	0.108556
207	C	0.977473	0.471613	0.141083
208	C	0.968242	0.469372	0.32415
209	C	0.944993	0.455143	0.358617
210	C	0.98265	0.481725	0.476876
211	C	0.006133	0.496236	0.443937
212	S	0.891721	0.438643	0.424523
213	S	0.837579	0.408078	0.263694
214	S	0.764217	0.381678	0.232204
215	H	0.772514	0.383607	0.72231
216	H	0.810924	0.397112	0.907463
217	H	0.790321	0.388942	0.588746
218	H	0.828492	0.402686	0.772785
219	H	0.865376	0.400122	0.816777
220	H	0.909871	0.420825	0.840541
221	H	0.943299	0.463937	0.834694
222	H	0.981637	0.490683	0.956391
223	H	0.022127	0.515581	0.899687
224	H	0.054738	0.532018	0.680927
225	H	0.087653	0.564992	0.582871
226	H	0.129063	0.584972	0.452003
227	H	0.125185	0.546718	0.848559
228	H	0.166971	0.565796	0.724326
229	H	0.204764	0.60257	0.65224
230	H	0.249329	0.626427	0.694845
231	H	0.044932	0.514818	0.082991
232	H	0.00711	0.487383	0.96425
233	H	0.96672	0.462149	0.021275
234	H	0.933996	0.445474	0.240665
