data_C66H30N18O6S6_2023-05-29_14:59:54
#******************************************
#
# CIF file created by Zeo++
# Zeo++ is an open source package to
# analyze microporous materials
#
#*******************************************

_cell_length_a		42.1218   
_cell_length_b		42.4203   
_cell_length_c		7   
_cell_angle_alpha		90   
_cell_angle_beta		90   
_cell_angle_gamma		119.693   

_symmetry_space_group_name_H-M		'P1'
_symmetry_Int_Tables_number		1
_symmetry_cell_setting		Monoclinic

loop_
_symmetry_equiv_pos_as_xyz
'+x,+y,+z'

loop_
_atom_site_label
_atom_site_type_symbol
_atom_site_fract_x
_atom_site_fract_y
_atom_site_fract_z
1	C	0.370121	0.674346	0.999995
2	O	0.402375	0.679992	0.999991
3	C	0.341003	0.636611	0.999998
4	C	0.346699	0.608798	0
5	N	0.382803	0.615302	0
6	C	0.303703	0.629914	3e-06
7	O	0.277532	0.597391	5e-06
8	C	0.294706	0.658934	6e-06
9	C	0.260381	0.651931	5e-06
10	N	0.232048	0.614927	0
11	C	0.325227	0.696366	4e-06
12	O	0.318075	0.721461	7e-06
13	C	0.363127	0.704746	0.999999
14	C	0.390031	0.738895	0.999998
15	N	0.384581	0.769208	0
16	H	0.324406	0.581722	1e-06
17	H	0.253115	0.672717	8e-06
18	H	0.417279	0.743771	0.999997
19	C	0.629879	0.325654	0.999995
20	O	0.597625	0.320008	0.999991
21	C	0.658997	0.363389	0.999998
22	C	0.653301	0.391202	0
23	N	0.617197	0.384698	0
24	C	0.696297	0.370086	3e-06
25	O	0.722468	0.402609	5e-06
26	C	0.705294	0.341066	6e-06
27	C	0.739619	0.348069	5e-06
28	N	0.767952	0.385073	0
29	C	0.674773	0.303634	4e-06
30	O	0.681925	0.278539	7e-06
31	C	0.636873	0.295254	0.999999
32	C	0.609969	0.261105	0.999998
33	N	0.615419	0.230792	0
34	H	0.675594	0.418278	1e-06
35	H	0.746885	0.327283	8e-06
36	H	0.582721	0.256229	0.999997
37	C	0.404869	0.593593	0
38	C	0.40123	0.597173	0.192396
39	C	0.418547	0.580135	0.287245
40	C	0.432212	0.566692	0.149138
41	C	0.451922	0.547301	0.161204
42	N	0.462127	0.537261	0.005718
43	C	0.480609	0.519078	0.055138
44	C	0.495545	0.504384	0.928194
45	C	0.513587	0.486633	0.997296
46	C	0.517211	0.483068	0.192817
47	C	0.50228	0.497757	0.31975
48	C	0.484238	0.515507	0.250721
49	S	0.463691	0.535723	0.373241
50	N	0.535677	0.4649	0.24204
51	C	0.545954	0.454789	0.087339
52	C	0.565708	0.435354	0.098123
53	C	0.576941	0.424303	0.258208
54	C	0.595554	0.405991	0.195929
55	C	0.595131	0.406407	0
56	N	0.577179	0.424069	0.941465
57	S	0.534141	0.466412	0.874846
58	N	0.423507	0.575256	0.974392
59	H	0.387729	0.610456	0.258341
60	H	0.420665	0.578052	0.440377
61	H	0.492859	0.507026	0.775517
62	H	0.504981	0.4951	0.472433
63	H	0.572105	0.429062	0.404672
64	H	0.60775	0.393992	0.28506
65	H	0.57301	0.42817	0.803715
66	H	0.430157	0.568714	0.847337
67	C	0.406241	0.812627	0
68	C	0.402669	0.805466	0.192396
69	C	0.419667	0.839541	0.287245
70	C	0.43308	0.866428	0.149138
71	C	0.452426	0.90521	0.161204
72	N	0.462443	0.92529	0.005718
73	C	0.480585	0.961658	0.055138
74	C	0.495246	0.991046	0.928194
75	C	0.512956	0.026548	0.997296
76	C	0.516513	0.033678	0.192817
77	C	0.501857	0.004298	0.31975
78	C	0.484147	0.968798	0.250721
79	S	0.463979	0.928368	0.373241
80	N	0.534639	0.070012	0.24204
81	C	0.544727	0.090234	0.087339
82	C	0.564118	0.129105	0.098123
83	C	0.575144	0.151207	0.258208
84	C	0.593414	0.187832	0.195929
85	C	0.592998	0.186998	0
86	N	0.575377	0.151675	0.941465
87	S	0.533131	0.06699	0.874846
88	N	0.424535	0.8493	0.974392
89	H	0.389416	0.778901	0.258341
90	H	0.421746	0.843708	0.440377
91	H	0.492609	0.985761	0.775517
92	H	0.504509	0.009613	0.472433
93	H	0.570396	0.14169	0.404672
94	H	0.605385	0.211829	0.28506
95	H	0.571285	0.143472	0.803715
96	H	0.431063	0.862386	0.847337
97	C	0.188322	0.593218	0
98	C	0.195534	0.596798	0.192396
99	C	0.161218	0.579761	0.287245
100	C	0.134141	0.566317	0.149138
101	C	0.095084	0.546926	0.161204
102	N	0.074863	0.536886	0.005718
103	C	0.038238	0.518702	0.055138
104	C	0.008642	0.504008	0.928194
105	C	0.972889	0.486257	0.997296
106	C	0.965709	0.482692	0.192817
107	C	0.995296	0.497382	0.31975
108	C	0.031047	0.515132	0.250721
109	S	0.071763	0.535347	0.373241
110	N	0.929117	0.464525	0.24204
111	C	0.908752	0.454414	0.087339
112	C	0.869606	0.434979	0.098123
113	C	0.847348	0.423927	0.258208
114	C	0.810464	0.405615	0.195929
115	C	0.811303	0.406032	0
116	N	0.846876	0.423694	0.941465
117	S	0.932161	0.466036	0.874846
118	N	0.15139	0.574881	0.974392
119	H	0.222287	0.610081	0.258341
120	H	0.157022	0.577678	0.440377
121	H	0.013964	0.506651	0.775517
122	H	0.989943	0.494725	0.472433
123	H	0.856932	0.428686	0.404672
124	H	0.786297	0.393617	0.28506
125	H	0.855137	0.427795	0.803715
126	H	0.138212	0.568338	0.847337
