data_C78H39N9O6S12_2023-05-15_10:33:02
#******************************************
#
# CIF file created by Zeo++
# Zeo++ is an open source package to
# analyze microporous materials
#
#*******************************************

_cell_length_a		42.1604   
_cell_length_b		42.4589   
_cell_length_c		7   
_cell_angle_alpha		90   
_cell_angle_beta		90   
_cell_angle_gamma		119.693   

_symmetry_space_group_name_H-M		'P1'
_symmetry_Int_Tables_number		1
_symmetry_cell_setting		Monoclinic

loop_
_symmetry_equiv_pos_as_xyz
'+x,+y,+z'

loop_
_atom_site_label
_atom_site_type_symbol
_atom_site_fract_x
_atom_site_fract_y
_atom_site_fract_z
1	C	0.370087	0.674339	0.999995
2	O	0.402312	0.67998	0.999991
3	C	0.340996	0.636639	0.999998
4	C	0.346686	0.608851	0
5	N	0.382758	0.615349	0
6	C	0.30373	0.629947	3e-06
7	O	0.277583	0.597454	5e-06
8	C	0.294741	0.658941	6e-06
9	C	0.260448	0.651944	5e-06
10	N	0.232141	0.614974	0
11	C	0.325235	0.696339	4e-06
12	O	0.318089	0.721412	7e-06
13	C	0.363099	0.704711	0.999999
14	C	0.38998	0.738829	0.999998
15	N	0.384534	0.769115	0
16	H	0.324414	0.581799	1e-06
17	H	0.253188	0.672711	8e-06
18	H	0.417202	0.743701	0.999997
19	C	0.629913	0.325661	0.999995
20	O	0.597688	0.32002	0.999991
21	C	0.659004	0.363361	0.999998
22	C	0.653314	0.391149	0
23	N	0.617242	0.384651	0
24	C	0.69627	0.370053	3e-06
25	O	0.722417	0.402546	5e-06
26	C	0.705259	0.341059	6e-06
27	C	0.739552	0.348056	5e-06
28	N	0.767859	0.385026	0
29	C	0.674765	0.303661	4e-06
30	O	0.681911	0.278588	7e-06
31	C	0.636901	0.295289	0.999999
32	C	0.61002	0.261171	0.999998
33	N	0.615466	0.230885	0
34	H	0.675586	0.418201	1e-06
35	H	0.746812	0.327289	8e-06
36	H	0.582798	0.256299	0.999997
37	C	0.595197	0.406341	0
38	C	0.60997	0.391815	0.121728
39	S	0.602941	0.398736	0.35462
40	C	0.579912	0.421382	0.292749
41	C	0.565502	0.435559	0.436461
42	C	0.567386	0.433704	0.6334
43	C	0.550133	0.450678	0.731488
44	C	0.535462	0.465112	0.607124
45	C	0.51477	0.48547	0.669307
46	C	0.508531	0.491608	0.854853
47	N	0.489634	0.510199	0.849915
48	C	0.483473	0.516261	0.663784
49	C	0.464219	0.535203	0.613672
50	C	0.449246	0.549934	0.73529
51	C	0.432073	0.566831	0.635656
52	C	0.434125	0.564812	0.439186
53	C	0.419839	0.578868	0.294154
54	C	0.421932	0.576805	0.097183
55	C	0.404803	0.593659	0
56	C	0.389932	0.608294	0.120356
57	S	0.396765	0.601574	0.353889
58	S	0.457103	0.542206	0.380282
59	C	0.499044	0.500942	0.549204
60	S	0.542534	0.458155	0.375172
61	C	0.577982	0.423274	0.095596
62	H	0.62448	0.377544	0.086667
63	H	0.580537	0.420766	0.706591
64	H	0.548798	0.451992	0.885476
65	H	0.515724	0.484529	0.990082
66	H	0.481443	0.518258	0.96659
67	H	0.450221	0.548974	0.889536
68	H	0.418855	0.579835	0.707578
69	H	0.435184	0.563764	0.026
70	H	0.375457	0.622538	0.08393
71	H	0.499092	0.500896	0.394572
72	H	0.564787	0.436249	0.023203
73	C	0.593065	0.187131	0
74	C	0.607558	0.216192	0.121728
75	S	0.600652	0.202354	0.35462
76	C	0.578058	0.157051	0.292749
77	C	0.563914	0.128698	0.436461
78	C	0.565764	0.132407	0.6334
79	C	0.548829	0.098459	0.731488
80	C	0.534428	0.06959	0.607124
81	C	0.514117	0.028874	0.669307
82	C	0.507993	0.016598	0.854853
83	N	0.489444	0.979416	0.849915
84	C	0.483396	0.967292	0.663784
85	C	0.464497	0.929407	0.613672
86	C	0.4498	0.899945	0.73529
87	C	0.432941	0.866152	0.635656
88	C	0.434956	0.87019	0.439186
89	C	0.420932	0.842079	0.294154
90	C	0.42299	0.846201	0.097183
91	C	0.406175	0.812495	0
92	C	0.391573	0.783229	0.120356
93	S	0.398277	0.796671	0.353889
94	S	0.45751	0.915402	0.380282
95	C	0.49868	0.997931	0.549204
96	S	0.54137	0.083506	0.375172
97	C	0.576171	0.153262	0.095596
98	H	0.621796	0.244738	0.086667
99	H	0.578673	0.158283	0.706591
100	H	0.547519	0.095831	0.885476
101	H	0.515055	0.030754	0.990082
102	H	0.481404	0.963298	0.96659
103	H	0.450758	0.901864	0.889536
104	H	0.419967	0.840144	0.707578
105	H	0.436002	0.87228	0.026
106	H	0.377361	0.754744	0.08393
107	H	0.498726	0.998024	0.394572
108	H	0.563226	0.127304	0.023203
109	C	0.811171	0.405966	0
110	C	0.781905	0.391431	0.121728
111	S	0.79584	0.398347	0.35462
112	C	0.841463	0.421004	0.292749
113	C	0.870017	0.435181	0.436461
114	C	0.866282	0.433327	0.6334
115	C	0.90047	0.450301	0.731488
116	C	0.929543	0.464736	0.607124
117	C	0.970546	0.485094	0.669307
118	C	0.982909	0.491232	0.854853
119	N	0.020355	0.509824	0.849915
120	C	0.032564	0.515885	0.663784
121	C	0.070717	0.534828	0.613672
122	C	0.100387	0.549559	0.73529
123	C	0.134419	0.566455	0.635656
124	C	0.130352	0.564436	0.439186
125	C	0.158662	0.578491	0.294154
126	C	0.154511	0.576432	0.097183
127	C	0.188455	0.593284	0
128	C	0.217928	0.607915	0.120356
129	S	0.204391	0.601193	0.353889
130	S	0.08482	0.54183	0.380282
131	C	0.001709	0.500566	0.549204
132	S	0.915529	0.457778	0.375172
133	C	0.84528	0.422902	0.095596
134	H	0.753157	0.377156	0.086667
135	H	0.840223	0.420389	0.706591
136	H	0.903116	0.451615	0.885476
137	H	0.968653	0.484155	0.990082
138	H	0.036586	0.517883	0.96659
139	H	0.098454	0.5486	0.889536
140	H	0.16061	0.579459	0.707578
141	H	0.128247	0.563394	0.026
142	H	0.246614	0.622156	0.08393
143	H	0.001615	0.500519	0.394572
144	H	0.871421	0.435885	0.023203
