data_C84H42N6O6S12_2023-05-14_23:12:11
#******************************************
#
# CIF file created by Zeo++
# Zeo++ is an open source package to
# analyze microporous materials
#
#*******************************************

_cell_length_a		46.6413   
_cell_length_b		46.9398   
_cell_length_c		7   
_cell_angle_alpha		90   
_cell_angle_beta		90   
_cell_angle_gamma		119.722   

_symmetry_space_group_name_H-M		'P1'
_symmetry_Int_Tables_number		1
_symmetry_cell_setting		Monoclinic

loop_
_symmetry_equiv_pos_as_xyz
'+x,+y,+z'

loop_
_atom_site_label
_atom_site_type_symbol
_atom_site_fract_x
_atom_site_fract_y
_atom_site_fract_z
1	C	0.366561	0.673608	0.999995
2	O	0.395692	0.678713	0.999991
3	C	0.340244	0.639497	0.999998
4	C	0.345372	0.614354	0
5	N	0.377982	0.620234	0
6	C	0.306554	0.633443	3e-06
7	O	0.282902	0.604042	5e-06
8	C	0.298445	0.659676	6e-06
9	C	0.267442	0.653345	5e-06
10	N	0.241835	0.619895	0
11	C	0.326029	0.693514	4e-06
12	O	0.319583	0.7162	7e-06
13	C	0.36026	0.701089	0.999999
14	C	0.384576	0.73196	0.999998
15	N	0.37967	0.759363	0
16	H	0.325225	0.589878	1e-06
17	H	0.260891	0.672136	8e-06
18	H	0.409186	0.736368	0.999997
19	C	0.633439	0.326392	0.999995
20	O	0.604308	0.321287	0.999991
21	C	0.659756	0.360503	0.999998
22	C	0.654628	0.385646	0
23	N	0.622018	0.379766	0
24	C	0.693446	0.366557	3e-06
25	O	0.717098	0.395958	5e-06
26	C	0.701555	0.340324	6e-06
27	C	0.732558	0.346655	5e-06
28	N	0.758165	0.380105	0
29	C	0.673971	0.306486	4e-06
30	O	0.680417	0.2838	7e-06
31	C	0.63974	0.298911	0.999999
32	C	0.615424	0.26804	0.999998
33	N	0.62033	0.240637	0
34	H	0.674775	0.410122	1e-06
35	H	0.739109	0.327864	8e-06
36	H	0.590814	0.263632	0.999997
37	C	0.602102	0.399391	0
38	C	0.612426	0.389222	0.15566
39	S	0.601278	0.400212	0.363447
40	C	0.582441	0.41877	0.244752
41	C	0.566743	0.434242	0.347281
42	C	0.564185	0.436772	0.5424
43	C	0.546975	0.453732	0.593048
44	C	0.5364	0.464143	0.436705
45	C	0.517926	0.482346	0.432119
46	C	0.508758	0.491384	0.26177
47	C	0.491257	0.50863	0.26177
48	C	0.482084	0.517663	0.432119
49	C	0.46361	0.535867	0.436706
50	C	0.453043	0.546286	0.593048
51	C	0.435832	0.563245	0.5424
52	C	0.433265	0.565766	0.347281
53	C	0.417564	0.581235	0.244752
54	C	0.41502	0.583739	0.048743
55	C	0.397898	0.600609	0
56	C	0.387577	0.610781	0.15566
57	S	0.398729	0.599795	0.363447
58	S	0.452007	0.547292	0.230098
59	C	0.491255	0.508621	0.602474
60	C	0.508749	0.491383	0.602475
61	S	0.547993	0.452708	0.230098
62	C	0.584981	0.416263	0.048743
63	H	0.625881	0.375963	0.158691
64	H	0.57412	0.426989	0.647083
65	H	0.54278	0.457874	0.739967
66	H	0.514903	0.485334	0.123359
67	H	0.485116	0.514685	0.123359
68	H	0.457246	0.542152	0.739967
69	H	0.425903	0.573033	0.647083
70	H	0.425016	0.573888	0.944902
71	H	0.374121	0.624039	0.158691
72	H	0.485052	0.51473	0.740442
73	H	0.514948	0.48527	0.740442
74	H	0.574984	0.426111	0.944901
75	C	0.600058	0.201049	0
76	C	0.610206	0.221391	0.15566
77	S	0.599239	0.199416	0.363447
78	C	0.580718	0.162295	0.244752
79	C	0.565279	0.131356	0.347281
80	C	0.562754	0.126305	0.5424
81	C	0.545829	0.092387	0.593048
82	C	0.53544	0.071556	0.436705
83	C	0.517274	0.035148	0.432119
84	C	0.508254	0.017076	0.26177
85	C	0.491044	0.982585	0.26177
86	C	0.48203	0.964513	0.432119
87	C	0.463863	0.928105	0.436706
88	C	0.453466	0.907275	0.593048
89	C	0.436542	0.873356	0.5424
90	C	0.434026	0.868305	0.347281
91	C	0.41859	0.837366	0.244752
92	C	0.41609	0.832355	0.048743
93	C	0.399255	0.798613	0
94	C	0.389104	0.77827	0.15566
95	S	0.400067	0.800246	0.363447
96	S	0.452463	0.905248	0.230098
97	C	0.491053	0.982592	0.602474
98	C	0.508256	0.017069	0.602475
99	S	0.54685	0.094413	0.230098
100	C	0.583221	0.167307	0.048743
101	H	0.623437	0.247908	0.158691
102	H	0.572517	0.145878	0.647083
103	H	0.541695	0.084111	0.739967
104	H	0.514292	0.029181	0.123359
105	H	0.485002	0.97048	0.123359
106	H	0.457592	0.91555	0.739967
107	H	0.426774	0.853784	0.647083
108	H	0.425921	0.852055	0.944902
109	H	0.375873	0.751753	0.158691
110	H	0.484957	0.970371	0.740442
111	H	0.514356	0.02929	0.740442
112	H	0.573393	0.147606	0.944901
113	C	0.797327	0.399052	0
114	C	0.776855	0.388879	0.15566
115	S	0.798971	0.399864	0.363447
116	C	0.836328	0.418426	0.244752
117	C	0.867465	0.433894	0.347281
118	C	0.872549	0.436414	0.5424
119	C	0.906684	0.453373	0.593048
120	C	0.927647	0.463793	0.436705
121	C	0.964288	0.481997	0.432119
122	C	0.982475	0.491031	0.26177
123	C	0.017186	0.508276	0.26177
124	C	0.035374	0.517315	0.432119
125	C	0.072015	0.535519	0.436706
126	C	0.092978	0.545931	0.593048
127	C	0.127113	0.562891	0.5424
128	C	0.132196	0.56542	0.347281
129	C	0.163334	0.580891	0.244752
130	C	0.168377	0.583398	0.048743
131	C	0.202334	0.60027	0
132	C	0.222807	0.61044	0.15566
133	S	0.200691	0.599451	0.363447
134	S	0.095018	0.546952	0.230098
135	C	0.017179	0.508278	0.602474
136	C	0.982482	0.491039	0.602475
137	S	0.904644	0.45237	0.230098
138	C	0.831285	0.415922	0.048743
139	H	0.750169	0.37562	0.158691
140	H	0.852851	0.426625	0.647083
141	H	0.915012	0.457506	0.739967
142	H	0.970293	0.484976	0.123359
143	H	0.029369	0.514327	0.123359
144	H	0.08465	0.54179	0.739967
145	H	0.146811	0.572675	0.647083
146	H	0.148551	0.573548	0.944902
147	H	0.249493	0.623699	0.158691
148	H	0.029478	0.51439	0.740442
149	H	0.970183	0.484931	0.740442
150	H	0.851111	0.425774	0.944901
