data_C102H48N12O6S18_2023-05-15_18:11:50
#******************************************
#
# CIF file created by Zeo++
# Zeo++ is an open source package to
# analyze microporous materials
#
#*******************************************

_cell_length_a		52.286   
_cell_length_b		52.5844   
_cell_length_c		7   
_cell_angle_alpha		90   
_cell_angle_beta		90   
_cell_angle_gamma		119.752   

_symmetry_space_group_name_H-M		'P1'
_symmetry_Int_Tables_number		1
_symmetry_cell_setting		Monoclinic

loop_
_symmetry_equiv_pos_as_xyz
'+x,+y,+z'

loop_
_atom_site_label
_atom_site_type_symbol
_atom_site_fract_x
_atom_site_fract_y
_atom_site_fract_z
1	C	0.362977	0.672865	0.999995
2	O	0.388967	0.677423	0.999991
3	C	0.339483	0.642407	0.999998
4	C	0.344044	0.619956	0
5	N	0.373137	0.625206	0
6	C	0.309427	0.637	3e-06
7	O	0.288313	0.610748	5e-06
8	C	0.302207	0.660425	6e-06
9	C	0.274549	0.654772	5e-06
10	N	0.251688	0.624903	0
11	C	0.326832	0.69064	4e-06
12	O	0.321095	0.710896	7e-06
13	C	0.357372	0.697403	0.999999
14	C	0.37908	0.724968	0.999998
15	N	0.374718	0.749437	0
16	H	0.326059	0.5981	1e-06
17	H	0.268715	0.67155	8e-06
18	H	0.401035	0.728904	0.999997
19	C	0.637023	0.327135	0.999995
20	O	0.611033	0.322577	0.999991
21	C	0.660517	0.357593	0.999998
22	C	0.655956	0.380044	0
23	N	0.626863	0.374794	0
24	C	0.690573	0.363	3e-06
25	O	0.711687	0.389252	5e-06
26	C	0.697793	0.339575	6e-06
27	C	0.725451	0.345228	5e-06
28	N	0.748312	0.375097	0
29	C	0.673168	0.30936	4e-06
30	O	0.678905	0.289104	7e-06
31	C	0.642628	0.302597	0.999999
32	C	0.62092	0.275032	0.999998
33	N	0.625282	0.250563	0
34	H	0.673941	0.4019	1e-06
35	H	0.731285	0.32845	8e-06
36	H	0.598965	0.271096	0.999997
37	C	0.609108	0.392318	0
38	C	0.622861	0.378707	0.082665
39	S	0.621561	0.379967	0.326136
40	C	0.602429	0.39889	0.321641
41	C	0.593746	0.407461	0.49622
42	C	0.598766	0.402481	0.682787
43	C	0.587018	0.414083	0.819551
44	C	0.573101	0.427849	0.736645
45	C	0.558943	0.441835	0.835624
46	C	0.556754	0.443983	0.031175
47	C	0.541454	0.459099	0.083745
48	C	0.532021	0.468436	0.927843
49	C	0.515691	0.484577	0.922081
50	C	0.507025	0.493226	0.08616
51	N	0.491945	0.508131	0.083776
52	C	0.485436	0.514477	0.908562
53	C	0.46913	0.530598	0.911879
54	C	0.459932	0.53976	0.069722
55	C	0.444579	0.554917	0.02079
56	C	0.442126	0.557259	0.825634
57	C	0.427841	0.571341	0.729416
58	C	0.414022	0.585001	0.81506
59	C	0.402098	0.596746	0.680627
60	C	0.406889	0.59198	0.493085
61	C	0.39798	0.600741	0.320258
62	C	0.402818	0.59594	0.132189
63	C	0.390892	0.607682	0
64	C	0.377225	0.621176	0.085428
65	S	0.37883	0.619632	0.328607
66	S	0.425927	0.573185	0.485399
67	S	0.458746	0.540775	0.706449
68	C	0.494084	0.505845	0.744353
69	N	0.509166	0.490938	0.747483
70	S	0.542175	0.458421	0.719913
71	S	0.574716	0.426275	0.492293
72	C	0.597364	0.403919	0.134573
73	H	0.633579	0.368113	0.013469
74	H	0.610378	0.390998	0.722305
75	H	0.588911	0.412198	0.972273
76	H	0.565681	0.43515	0.134585
77	H	0.537763	0.462731	0.230987
78	H	0.511861	0.488522	0.228106
79	H	0.46411	0.535692	0.215143
80	H	0.435826	0.563618	0.126327
81	H	0.412321	0.586709	0.968172
82	H	0.390529	0.608176	0.722474
83	H	0.414412	0.584497	0.091284
84	H	0.366407	0.631836	0.018412
85	H	0.489317	0.510486	0.601965
86	H	0.585735	0.415426	0.096058
87	C	0.607178	0.215214	0
88	C	0.620764	0.242398	0.082665
89	S	0.619506	0.239855	0.326136
90	C	0.600617	0.202049	0.321641
91	C	0.592063	0.184909	0.49622
92	C	0.597033	0.194843	0.682787
93	C	0.585453	0.171647	0.819551
94	C	0.571712	0.144146	0.736645
95	C	0.557751	0.116187	0.835624
96	C	0.555608	0.111878	0.031175
97	C	0.540519	0.081662	0.083745
98	C	0.531199	0.063016	0.927843
99	C	0.515088	0.030758	0.922081
100	C	0.506454	0.013557	0.08616
101	N	0.491576	0.983769	0.083776
102	C	0.485243	0.970999	0.908562
103	C	0.469151	0.938785	0.911879
104	C	0.460006	0.920546	0.069722
105	C	0.444877	0.890236	0.02079
106	C	0.442539	0.885473	0.825634
107	C	0.428483	0.857292	0.729416
108	C	0.414848	0.829993	0.81506
109	C	0.403125	0.806481	0.680627
110	C	0.407882	0.815974	0.493085
111	C	0.399138	0.798421	0.320258
112	C	0.40393	0.807996	0.132189
113	C	0.392209	0.784484	0
114	C	0.378741	0.757502	0.085428
115	S	0.380282	0.76063	0.328607
116	S	0.426643	0.853559	0.485399
117	S	0.458993	0.918358	0.706449
118	C	0.493859	0.988165	0.744353
119	N	0.508739	0.017956	0.747483
120	S	0.541196	0.083052	0.719913
121	S	0.573283	0.147315	0.492293
122	C	0.595598	0.192022	0.134573
123	H	0.631339	0.26357	0.013469
124	H	0.608496	0.217787	0.722305
125	H	0.587334	0.1754	0.972273
126	H	0.564425	0.129522	0.134585
127	H	0.536895	0.074388	0.230987
128	H	0.51115	0.023035	0.228106
129	H	0.464066	0.928737	0.215143
130	H	0.436191	0.872896	0.126327
131	H	0.413143	0.826607	0.968172
132	H	0.391716	0.783633	0.722474
133	H	0.415352	0.830881	0.091284
134	H	0.3681	0.736165	0.018412
135	H	0.489227	0.978819	0.601965
136	H	0.584112	0.169038	0.096058
137	C	0.783257	0.392015	0
138	C	0.755918	0.378442	0.082665
139	S	0.758475	0.379724	0.326136
140	C	0.796496	0.398606	0.321641
141	C	0.813734	0.407176	0.49622
142	C	0.803744	0.402222	0.682787
143	C	0.827072	0.413816	0.819551
144	C	0.854729	0.427551	0.736645
145	C	0.882848	0.441524	0.835624
146	C	0.887181	0.443685	0.031175
147	C	0.917569	0.458785	0.083745
148	C	0.936322	0.468094	0.927843
149	C	0.968764	0.484211	0.922081
150	C	0.986063	0.492763	0.08616
151	N	0.016021	0.507646	0.083776
152	C	0.028863	0.51407	0.908562
153	C	0.061261	0.530163	0.911879
154	C	0.079605	0.539241	0.069722
155	C	0.110087	0.554393	0.02079
156	C	0.114877	0.556814	0.825634
157	C	0.143218	0.570912	0.729416
158	C	0.170673	0.584552	0.81506
159	C	0.194319	0.596319	0.680627
160	C	0.184771	0.591591	0.493085
161	C	0.202425	0.600384	0.320258
162	C	0.192795	0.59561	0.132189
163	C	0.216441	0.60738	0
164	C	0.243577	0.620868	0.085428
165	S	0.240431	0.619284	0.328607
166	S	0.146972	0.572802	0.485399
167	S	0.081804	0.540412	0.706449
168	C	0.0116	0.505536	0.744353
169	N	0.981638	0.490651	0.747483
170	S	0.916172	0.458073	0.719913
171	S	0.851543	0.425957	0.492293
172	C	0.80658	0.403605	0.134573
173	H	0.734625	0.367864	0.013469
174	H	0.780669	0.390761	0.722305
175	H	0.823298	0.411948	0.972273
176	H	0.869437	0.434875	0.134585
177	H	0.924885	0.462428	0.230987
178	H	0.976531	0.48799	0.228106
179	H	0.071367	0.535117	0.215143
180	H	0.127525	0.563032	0.126327
181	H	0.174078	0.586229	0.968172
182	H	0.217297	0.607737	0.722474
183	H	0.169779	0.584167	0.091284
184	H	0.265035	0.631545	0.018412
185	H	0.020998	0.510241	0.601965
186	H	0.829696	0.415082	0.096058
