data_C60H24N6O6S12_2023-05-13_21:22:01
#******************************************
#
# CIF file created by Zeo++
# Zeo++ is an open source package to
# analyze microporous materials
#
#*******************************************

_cell_length_a		39.0624   
_cell_length_b		39.361   
_cell_length_c		7   
_cell_angle_alpha		90   
_cell_angle_beta		90   
_cell_angle_gamma		119.669   

_symmetry_space_group_name_H-M		'P1'
_symmetry_Int_Tables_number		1
_symmetry_cell_setting		Monoclinic

loop_
_symmetry_equiv_pos_as_xyz
'+x,+y,+z'

loop_
_atom_site_label
_atom_site_type_symbol
_atom_site_fract_x
_atom_site_fract_y
_atom_site_fract_z
1	C	0.372998	0.67494	0.999995
2	O	0.407775	0.681024	0.999991
3	C	0.341619	0.634283	0.999998
4	C	0.347776	0.604315	0
5	N	0.386704	0.611323	0
6	C	0.301401	0.627067	3e-06
7	O	0.273198	0.592024	5e-06
8	C	0.291684	0.658334	6e-06
9	C	0.254675	0.650789	5e-06
10	N	0.224143	0.610919	0
11	C	0.324577	0.698667	4e-06
12	O	0.316851	0.725706	7e-06
13	C	0.36544	0.707696	0.999999
14	C	0.394434	0.74449	0.999998
15	N	0.388541	0.777152	0
16	H	0.323751	0.575141	1e-06
17	H	0.246829	0.673185	8e-06
18	H	0.423813	0.749744	0.999997
19	C	0.627002	0.32506	0.999995
20	O	0.592225	0.318976	0.999991
21	C	0.658381	0.365717	0.999998
22	C	0.652224	0.395685	0
23	N	0.613296	0.388677	0
24	C	0.698599	0.372933	3e-06
25	O	0.726802	0.407976	5e-06
26	C	0.708316	0.341666	6e-06
27	C	0.745325	0.349211	5e-06
28	N	0.775857	0.389081	0
29	C	0.675423	0.301333	4e-06
30	O	0.683149	0.274294	7e-06
31	C	0.63456	0.292304	0.999999
32	C	0.605566	0.25551	0.999998
33	N	0.611459	0.222848	0
34	H	0.676249	0.424859	1e-06
35	H	0.753171	0.326815	8e-06
36	H	0.576187	0.250256	0.999997
37	C	0.58949	0.412068	0
38	C	0.569761	0.431453	0.949554
39	C	0.557148	0.443847	0.114102
40	C	0.533617	0.466968	0.109179
41	C	0.521816	0.478563	0.270088
42	C	0.501218	0.498803	0.219946
43	C	0.498095	0.501872	0.027254
44	C	0.477497	0.522111	0.977156
45	C	0.465696	0.533707	0.13805
46	C	0.442169	0.556825	0.130382
47	C	0.430344	0.568443	0.291753
48	S	0.405472	0.592882	0.236924
49	C	0.41051	0.587932	0
50	C	0.430493	0.568296	0.95963
51	S	0.478935	0.520698	0.347082
52	S	0.520375	0.479979	0.900107
53	C	0.568055	0.433129	0.281276
54	S	0.593203	0.408419	0.239188
55	H	0.564638	0.436488	0.802906
56	H	0.527176	0.473297	0.415802
57	H	0.472116	0.527399	0.831513
58	H	0.434847	0.564019	0.440039
59	H	0.436375	0.562517	0.815737
60	H	0.562789	0.438304	0.427116
61	C	0.587305	0.175662	0
62	C	0.567967	0.136892	0.949554
63	C	0.555604	0.112105	0.114102
64	C	0.53254	0.065861	0.109179
65	C	0.520974	0.042672	0.270088
66	C	0.500784	0.002192	0.219946
67	C	0.497722	0.996054	0.027254
68	C	0.477533	0.955577	0.977156
69	C	0.465965	0.932384	0.13805
70	C	0.442905	0.886149	0.130382
71	C	0.431315	0.862912	0.291753
72	S	0.406937	0.814035	0.236924
73	C	0.411875	0.823935	0
74	C	0.431462	0.863205	0.95963
75	S	0.478943	0.958403	0.347082
76	S	0.519561	0.03984	0.900107
77	C	0.566295	0.133539	0.281276
78	S	0.590944	0.182959	0.239188
79	H	0.562945	0.126824	0.802906
80	H	0.526227	0.053205	0.415802
81	H	0.472258	0.945001	0.831513
82	H	0.435729	0.871761	0.440039
83	H	0.437227	0.874764	0.815737
84	H	0.561134	0.12319	0.427116
85	C	0.822594	0.411664	0
86	C	0.86166	0.431049	0.949554
87	C	0.886635	0.443443	0.114102
88	C	0.933232	0.466564	0.109179
89	C	0.956598	0.478159	0.270088
90	C	0.997386	0.498399	0.219946
91	C	0.003571	0.501468	0.027254
92	C	0.044357	0.521707	0.977156
93	C	0.067727	0.533303	0.13805
94	C	0.114314	0.55642	0.130382
95	C	0.137729	0.568039	0.291753
96	S	0.186979	0.592478	0.236924
97	C	0.177003	0.587528	0
98	C	0.137433	0.567892	0.95963
99	S	0.04151	0.520294	0.347082
100	S	0.959452	0.479575	0.900107
101	C	0.865038	0.432726	0.281276
102	S	0.815241	0.408016	0.239188
103	H	0.871804	0.436083	0.802906
104	H	0.945985	0.472893	0.415802
105	H	0.055013	0.526994	0.831513
106	H	0.128813	0.563614	0.440039
107	H	0.125786	0.562113	0.815737
108	H	0.875466	0.4379	0.427116
