data_C108H48N12O6S21_2023-05-12_01:30:44
#******************************************
#
# CIF file created by Zeo++
# Zeo++ is an open source package to
# analyze microporous materials
#
#*******************************************

_cell_length_a		60.2764   
_cell_length_b		60.5748   
_cell_length_c		7   
_cell_angle_alpha		90   
_cell_angle_beta		90   
_cell_angle_gamma		119.785   

_symmetry_space_group_name_H-M		'P1'
_symmetry_Int_Tables_number		1
_symmetry_cell_setting		Monoclinic

loop_
_symmetry_equiv_pos_as_xyz
'+x,+y,+z'

loop_
_atom_site_label
_atom_site_type_symbol
_atom_site_fract_x
_atom_site_fract_y
_atom_site_fract_z
1	C	0.359051	0.672049	0.999995
2	O	0.381598	0.676007	0.999991
3	C	0.338654	0.6456	0.999998
4	C	0.342598	0.626104	0
5	N	0.367836	0.630663	0
6	C	0.312579	0.640905	3e-06
7	O	0.294249	0.618108	5e-06
8	C	0.30633	0.661246	6e-06
9	C	0.282335	0.656338	5e-06
10	N	0.262487	0.6304	0
11	C	0.327708	0.687484	4e-06
12	O	0.322742	0.705074	7e-06
13	C	0.354203	0.693358	0.999999
14	C	0.373049	0.717294	0.999998
15	N	0.36928	0.738542	0
16	H	0.326984	0.607125	1e-06
17	H	0.277284	0.670907	8e-06
18	H	0.392096	0.720712	0.999997
19	C	0.640949	0.327951	0.999995
20	O	0.618402	0.323993	0.999991
21	C	0.661346	0.3544	0.999998
22	C	0.657402	0.373896	0
23	N	0.632164	0.369337	0
24	C	0.687421	0.359095	3e-06
25	O	0.705751	0.381892	5e-06
26	C	0.69367	0.338754	6e-06
27	C	0.717665	0.343662	5e-06
28	N	0.737513	0.3696	0
29	C	0.672292	0.312516	4e-06
30	O	0.677258	0.294926	7e-06
31	C	0.645797	0.306642	0.999999
32	C	0.626951	0.282706	0.999998
33	N	0.63072	0.261458	0
34	H	0.673016	0.392875	1e-06
35	H	0.722716	0.329093	8e-06
36	H	0.607904	0.279288	0.999997
37	C	0.383228	0.615446	0
38	C	0.394276	0.617982	0.824525
39	C	0.409747	0.606207	0.821701
40	C	0.409962	0.595202	0.995053
41	C	0.423572	0.581692	0.038247
42	C	0.433487	0.571771	0.907718
43	C	0.44604	0.559719	0.996063
44	C	0.445657	0.56058	0.193421
45	C	0.456463	0.550396	0.329028
46	C	0.457091	0.552247	0.52641
47	C	0.469387	0.539969	0.615127
48	C	0.478164	0.529177	0.483627
49	C	0.491302	0.514875	0.517517
50	C	0.479122	0.490741	0.605371
51	C	0.491572	0.476595	0.640407
52	C	0.517284	0.485326	0.59057
53	C	0.529708	0.470435	0.628815
54	C	0.535167	0.463537	0.802714
55	C	0.547066	0.448363	0.782093
56	C	0.550333	0.443855	0.593066
57	C	0.561592	0.429074	0.524204
58	C	0.563817	0.410595	0.62413
59	C	0.576053	0.399665	0.516347
60	C	0.583188	0.409995	0.335438
61	C	0.595966	0.403625	0.187888
62	C	0.603787	0.414501	0.008365
63	C	0.615848	0.403463	0.8994
64	C	0.616772	0.384554	0
65	S	0.603591	0.379929	0.219768
66	S	0.574704	0.432897	0.300948
67	S	0.538404	0.457955	0.4435
68	C	0.53086	0.509826	0.503937
69	N	0.555511	0.52224	0.449132
70	S	0.561267	0.549818	0.358456
71	N	0.533034	0.547776	0.385909
72	C	0.517484	0.525035	0.466345
73	S	0.470828	0.533386	0.255663
74	S	0.429901	0.576176	0.266704
75	S	0.391031	0.5994	0.158808
76	H	0.391616	0.627658	0.704166
77	H	0.420334	0.606047	0.697168
78	H	0.431842	0.57285	0.754352
79	H	0.454931	0.550878	0.91597
80	H	0.449181	0.562061	0.606046
81	H	0.471837	0.539397	0.768017
82	H	0.459107	0.48241	0.647001
83	H	0.480612	0.457969	0.707628
84	H	0.531091	0.469261	0.938877
85	H	0.553123	0.44132	0.90188
86	H	0.556857	0.404835	0.768447
87	H	0.579351	0.384835	0.571563
88	H	0.601089	0.42982	0.955427
89	H	0.623283	0.409264	0.756201
90	C	0.384472	0.768976	0
91	C	0.381882	0.777421	0.824525
92	C	0.393623	0.804507	0.821701
93	C	0.404657	0.815678	0.995053
94	C	0.418146	0.842643	0.038247
95	C	0.428051	0.862366	0.907718
96	C	0.440083	0.88683	0.996063
97	C	0.439221	0.885592	0.193421
98	C	0.449387	0.906462	0.329028
99	C	0.447528	0.905242	0.52641
100	C	0.459786	0.929676	0.615127
101	C	0.47057	0.949136	0.483627
102	C	0.484855	0.976421	0.517517
103	C	0.509109	0.988357	0.605371
104	C	0.523241	0.014804	0.640407
105	C	0.514375	0.031641	0.59057
106	C	0.529253	0.058803	0.628815
107	C	0.536147	0.071093	0.802714
108	C	0.551312	0.098016	0.782093
109	C	0.555817	0.105747	0.593066
110	C	0.570591	0.131644	0.524204
111	C	0.589112	0.152252	0.62413
112	C	0.60002	0.175285	0.516347
113	C	0.58963	0.172084	0.335438
114	C	0.595962	0.191114	0.187888
115	C	0.585022	0.18805	0.008365
116	C	0.596038	0.211016	0.8994
117	C	0.614996	0.230761	0
118	S	0.619691	0.222278	0.219768
119	S	0.5667	0.140857	0.300948
120	S	0.541731	0.079864	0.4435
121	C	0.489747	0.020727	0.503937
122	N	0.477192	0.032843	0.449132
123	S	0.449513	0.011101	0.358456
124	N	0.451683	0.9851	0.385909
125	C	0.474554	0.992302	0.466345
126	S	0.466382	0.937662	0.255663
127	S	0.42365	0.854419	0.266704
128	S	0.400529	0.7927	0.158808
129	H	0.372191	0.765146	0.704166
130	H	0.393737	0.815178	0.697168
131	H	0.426976	0.859658	0.754352
132	H	0.44891	0.904461	0.91597
133	H	0.437721	0.887617	0.606046
134	H	0.460349	0.932679	0.768017
135	H	0.51755	0.976778	0.647001
136	H	0.541967	0.022467	0.707628
137	H	0.530424	0.061346	0.938877
138	H	0.558348	0.111043	0.90188
139	H	0.594918	0.151077	0.768447
140	H	0.614877	0.193326	0.571563
141	H	0.569672	0.170119	0.955427
142	H	0.59019	0.212623	0.756201
143	C	0.231903	0.615183	0
144	C	0.223445	0.604203	0.824525
145	C	0.196233	0.588892	0.821701
146	C	0.184984	0.588726	0.995053
147	C	0.157885	0.575271	0.038247
148	C	0.138065	0.565469	0.907718
149	C	0.113481	0.553057	0.996063
150	C	0.114725	0.553434	0.193421
151	C	0.093753	0.542748	0.329028
152	C	0.094985	0.542117	0.52641
153	C	0.07043	0.52996	0.615127
154	C	0.050869	0.521292	0.483627
155	C	0.023446	0.508309	0.517517
156	C	0.011372	0.520508	0.605371
157	C	0.98479	0.508207	0.640407
158	C	0.967945	0.482639	0.59057
159	C	0.940642	0.470367	0.628815
160	C	0.928289	0.464976	0.802714
161	C	0.901225	0.453227	0.782093
162	C	0.893453	0.450003	0.593066
163	C	0.86742	0.438888	0.524204
164	C	0.846674	0.436758	0.62413
165	C	0.82353	0.424656	0.516347
166	C	0.826785	0.417527	0.335438
167	C	0.807675	0.404867	0.187888
168	C	0.810794	0.397055	0.008365
169	C	0.787717	0.385126	0.8994
170	C	0.767835	0.384291	0
171	S	0.776321	0.397399	0.219768
172	S	0.858198	0.425851	0.300948
173	S	0.919469	0.461787	0.4435
174	C	0.978996	0.469053	0.503937
175	N	0.9669	0.444522	0.449132
176	S	0.988823	0.438687	0.358456
177	N	0.014887	0.46673	0.385909
178	C	0.007565	0.482269	0.466345
179	S	0.062393	0.528558	0.255663
180	S	0.146052	0.569011	0.266704
181	S	0.208043	0.607505	0.158808
182	H	0.235797	0.606802	0.704166
183	H	0.185533	0.578381	0.697168
184	H	0.140785	0.567098	0.754352
185	H	0.095762	0.544267	0.91597
186	H	0.112702	0.549928	0.606046
187	H	0.067416	0.52753	0.768017
188	H	0.022946	0.540417	0.647001
189	H	0.977025	0.51917	0.707628
190	H	0.938088	0.468998	0.938877
191	H	0.888132	0.447243	0.90188
192	H	0.847828	0.443694	0.768447
193	H	0.805375	0.421446	0.571563
194	H	0.828842	0.399667	0.955427
195	H	0.786131	0.377719	0.756201
