data_C63H39N9O6_2023-05-29_01:44:32
#******************************************
#
# CIF file created by Zeo++
# Zeo++ is an open source package to
# analyze microporous materials
#
#*******************************************

_cell_length_a		35.8532   
_cell_length_b		36.1519   
_cell_length_c		7   
_cell_angle_alpha		90   
_cell_angle_beta		90   
_cell_angle_gamma		119.639   

_symmetry_space_group_name_H-M		'P1'
_symmetry_Int_Tables_number		1
_symmetry_cell_setting		Monoclinic

loop_
_symmetry_equiv_pos_as_xyz
'+x,+y,+z'

loop_
_atom_site_label
_atom_site_type_symbol
_atom_site_fract_x
_atom_site_fract_y
_atom_site_fract_z
1	C	0.376543	0.675672	0.999995
2	O	0.414429	0.682294	0.999991
3	C	0.342382	0.631419	0.999998
4	C	0.349109	0.5988	0
5	N	0.391517	0.606428	0
6	C	0.298568	0.623564	3e-06
7	O	0.267864	0.585422	5e-06
8	C	0.287962	0.657598	6e-06
9	C	0.247645	0.649385	5e-06
10	N	0.214405	0.605988	0
11	C	0.323772	0.701497	4e-06
12	O	0.315338	0.730928	7e-06
13	C	0.368287	0.711325	0.999999
14	C	0.399852	0.751374	0.999998
15	N	0.393411	0.786924	0
16	H	0.322953	0.567046	1e-06
17	H	0.239082	0.673762	8e-06
18	H	0.431858	0.757092	0.999997
19	C	0.623457	0.324328	0.999995
20	O	0.585571	0.317706	0.999991
21	C	0.657618	0.368581	0.999998
22	C	0.650891	0.4012	0
23	N	0.608483	0.393572	0
24	C	0.701432	0.376436	3e-06
25	O	0.732136	0.414578	5e-06
26	C	0.712038	0.342402	6e-06
27	C	0.752355	0.350615	5e-06
28	N	0.785595	0.394012	0
29	C	0.676228	0.298503	4e-06
30	O	0.684662	0.269072	7e-06
31	C	0.631713	0.288675	0.999999
32	C	0.600148	0.248626	0.999998
33	N	0.606589	0.213076	0
34	H	0.677047	0.432954	1e-06
35	H	0.760918	0.326238	8e-06
36	H	0.568142	0.242908	0.999997
37	C	0.582531	0.419032	0
38	C	0.581928	0.419602	0.191004
39	C	0.558761	0.442315	0.256619
40	C	0.546384	0.454474	0.07008
41	C	0.522603	0.477801	0.059444
42	C	0.51142	0.488754	0.885886
43	C	0.488735	0.511009	0.882287
44	C	0.477362	0.522182	0.053607
45	C	0.453679	0.545423	0.062755
46	C	0.439028	0.559815	0.920343
47	C	0.417469	0.580968	0
48	C	0.418572	0.57987	0.190909
49	C	0.441931	0.556937	0.251887
50	N	0.487676	0.512077	0.223932
51	C	0.509697	0.490474	0.222781
52	C	0.560756	0.440396	0.925147
53	H	0.595805	0.405983	0.284957
54	H	0.530504	0.420951	0.341092
55	H	0.580163	0.470385	0.341163
56	H	0.519993	0.480329	0.750351
57	H	0.480431	0.519141	0.745717
58	H	0.442222	0.556696	0.768826
59	H	0.404982	0.5932	0.288054
60	H	0.470417	0.578051	0.335684
61	H	0.420759	0.52863	0.335627
62	H	0.516721	0.483596	0.36516
63	H	0.557277	0.443827	0.774091
64	C	0.580303	0.161716	0
65	C	0.579734	0.160554	0.191004
66	C	0.557082	0.115113	0.256619
67	C	0.544956	0.090811	0.07008
68	C	0.521693	0.044154	0.059444
69	C	0.510769	0.02223	0.885886
70	C	0.488574	0.97772	0.882287
71	C	0.47743	0.955389	0.053607
72	C	0.454252	0.908914	0.062755
73	C	0.439898	0.880148	0.920343
74	C	0.418802	0.837845	0
75	C	0.419898	0.840025	0.190909
76	C	0.442768	0.885873	0.251887
77	N	0.487508	0.975612	0.223932
78	C	0.509053	0.018819	0.222781
79	C	0.558997	0.11899	0.925147
80	H	0.593317	0.187788	0.284957
81	H	0.578752	0.1084	0.341092
82	H	0.528726	0.108395	0.341163
83	H	0.519171	0.039065	0.750351
84	H	0.480463	0.96144	0.745717
85	H	0.443008	0.8864	0.768826
86	H	0.406604	0.813363	0.288054
87	H	0.421349	0.893062	0.335684
88	H	0.471362	0.893055	0.335627
89	H	0.515913	0.032589	0.36516
90	H	0.555575	0.112146	0.774091
91	C	0.836499	0.418592	0
92	C	0.837671	0.419184	0.191004
93	C	0.883489	0.441912	0.256619
94	C	0.907994	0.454055	0.07008
95	C	0.955038	0.477386	0.059444
96	C	0.977145	0.488357	0.885886
97	C	0.022025	0.510612	0.882287
98	C	0.044541	0.521769	0.053607
99	C	0.091403	0.545004	0.062755
100	C	0.120407	0.559377	0.920343
101	C	0.163062	0.580528	0
102	C	0.160864	0.579446	0.190909
103	C	0.114634	0.55653	0.251887
104	N	0.02415	0.511651	0.223932
105	C	0.980584	0.490047	0.222781
106	C	0.879581	0.439955	0.925147
107	H	0.810211	0.405569	0.284957
108	H	0.890077	0.469989	0.341092
109	H	0.890445	0.42056	0.341163
110	H	0.96017	0.479946	0.750351
111	H	0.038439	0.518759	0.745717
112	H	0.114103	0.556244	0.768826
113	H	0.187748	0.592778	0.288054
114	H	0.107567	0.528228	0.335684
115	H	0.107212	0.577656	0.335627
116	H	0.9667	0.483156	0.36516
117	H	0.886482	0.443368	0.774091
