data_C60H30N6O6S6_2023-05-14_03:15:34
#******************************************
#
# CIF file created by Zeo++
# Zeo++ is an open source package to
# analyze microporous materials
#
#*******************************************

_cell_length_a		36.6562   
_cell_length_b		36.9548   
_cell_length_c		7   
_cell_angle_alpha		90   
_cell_angle_beta		90   
_cell_angle_gamma		119.647   

_symmetry_space_group_name_H-M		'P1'
_symmetry_Int_Tables_number		1
_symmetry_cell_setting		Monoclinic

loop_
_symmetry_equiv_pos_as_xyz
'+x,+y,+z'

loop_
_atom_site_label
_atom_site_type_symbol
_atom_site_fract_x
_atom_site_fract_y
_atom_site_fract_z
1	C	0.375598	0.675477	0.999995
2	O	0.412655	0.681956	0.999991
3	C	0.342178	0.632182	0.999998
4	C	0.348753	0.60027	0
5	N	0.390233	0.607732	0
6	C	0.299323	0.624497	3e-06
7	O	0.269285	0.587181	5e-06
8	C	0.288954	0.657794	6e-06
9	C	0.249519	0.649759	5e-06
10	N	0.217001	0.607302	0
11	C	0.323987	0.700743	4e-06
12	O	0.315742	0.729537	7e-06
13	C	0.367528	0.710358	0.999999
14	C	0.398409	0.74954	0.999998
15	N	0.392113	0.784321	0
16	H	0.323164	0.569203	1e-06
17	H	0.241147	0.673608	8e-06
18	H	0.429714	0.755134	0.999997
19	C	0.624402	0.324523	0.999995
20	O	0.587345	0.318044	0.999991
21	C	0.657822	0.367818	0.999998
22	C	0.651247	0.39973	0
23	N	0.609767	0.392268	0
24	C	0.700677	0.375503	3e-06
25	O	0.730715	0.412819	5e-06
26	C	0.711046	0.342206	6e-06
27	C	0.750481	0.350241	5e-06
28	N	0.782999	0.392698	0
29	C	0.676013	0.299257	4e-06
30	O	0.684258	0.270463	7e-06
31	C	0.632472	0.289642	0.999999
32	C	0.601591	0.25046	0.999998
33	N	0.607887	0.215679	0
34	H	0.676836	0.430797	1e-06
35	H	0.758853	0.326392	8e-06
36	H	0.570286	0.244866	0.999997
37	C	0.584387	0.417177	0
38	C	0.581858	0.419647	0.194068
39	C	0.5599	0.441195	0.244425
40	C	0.546369	0.454486	0.087547
41	C	0.522831	0.477588	0.082951
42	C	0.511149	0.489054	0.912602
43	C	0.488847	0.510942	0.912602
44	C	0.477166	0.522409	0.082952
45	C	0.453628	0.545511	0.087547
46	C	0.440091	0.558796	0.244426
47	C	0.418135	0.580346	0.194068
48	C	0.415613	0.582823	0
49	S	0.438814	0.560053	0.879716
50	C	0.488853	0.510939	0.253319
51	C	0.511145	0.489059	0.253319
52	S	0.561191	0.439952	0.879715
53	H	0.594802	0.406936	0.29571
54	H	0.554505	0.44648	0.39125
55	H	0.518972	0.481374	0.774155
56	H	0.481023	0.518621	0.774155
57	H	0.445481	0.553506	0.391251
58	H	0.405187	0.593054	0.29571
59	H	0.480952	0.518695	0.391285
60	H	0.519048	0.481304	0.391285
61	C	0.582168	0.165432	0
62	C	0.579704	0.160479	0.194068
63	C	0.558213	0.11738	0.244425
64	C	0.544957	0.090809	0.087547
65	C	0.521915	0.044605	0.082951
66	C	0.51048	0.021674	0.912602
67	C	0.488649	0.977897	0.912602
68	C	0.477213	0.954965	0.082952
69	C	0.454171	0.908761	0.087547
70	C	0.440921	0.88219	0.244426
71	C	0.419428	0.839091	0.194068
72	C	0.416957	0.834138	0
73	S	0.439667	0.87968	0.879716
74	C	0.488652	0.977906	0.253319
75	C	0.510474	0.021665	0.253319
76	S	0.559453	0.119891	0.879715
77	H	0.592382	0.185894	0.29571
78	H	0.552942	0.1068	0.39125
79	H	0.518139	0.037031	0.774155
80	H	0.480991	0.962539	0.774155
81	H	0.446197	0.89277	0.391251
82	H	0.406753	0.813676	0.29571
83	H	0.480916	0.962394	0.391285
84	H	0.518209	0.037176	0.391285
85	C	0.832792	0.416746	0
86	C	0.837786	0.419229	0.194068
87	C	0.881235	0.44078	0.244425
88	C	0.908022	0.45406	0.087547
89	C	0.954601	0.477161	0.082951
90	C	0.977719	0.488627	0.912602
91	C	0.021852	0.510516	0.912602
92	C	0.044969	0.521981	0.082952
93	C	0.091549	0.545082	0.087547
94	C	0.118336	0.558368	0.244426
95	C	0.161785	0.579917	0.194068
96	C	0.166778	0.582393	0
97	S	0.120867	0.559622	0.879716
98	C	0.021843	0.51051	0.253319
99	C	0.977728	0.488631	0.253319
100	S	0.878704	0.439512	0.879715
101	H	0.812164	0.406525	0.29571
102	H	0.891901	0.446075	0.39125
103	H	0.962237	0.480949	0.774155
104	H	0.037334	0.518195	0.774155
105	H	0.10767	0.553079	0.391251
106	H	0.187407	0.592625	0.29571
107	H	0.03748	0.518265	0.391285
108	H	0.962091	0.480874	0.391285
