data_C90H42N6O6S6_2023-05-13_11:16:35
#******************************************
#
# CIF file created by Zeo++
# Zeo++ is an open source package to
# analyze microporous materials
#
#*******************************************

_cell_length_a		43.5328   
_cell_length_b		43.8314   
_cell_length_c		7   
_cell_angle_alpha		90   
_cell_angle_beta		90   
_cell_angle_gamma		119.702   

_symmetry_space_group_name_H-M		'P1'
_symmetry_Int_Tables_number		1
_symmetry_cell_setting		Monoclinic

loop_
_symmetry_equiv_pos_as_xyz
'+x,+y,+z'

loop_
_atom_site_label
_atom_site_type_symbol
_atom_site_fract_x
_atom_site_fract_y
_atom_site_fract_z
1	C	0.36893	0.674099	0.999995
2	O	0.40014	0.679564	0.999991
3	C	0.340749	0.637576	0.999998
4	C	0.346254	0.610656	0
5	N	0.38119	0.616951	0
6	C	0.304656	0.631094	3e-06
7	O	0.279327	0.599614	5e-06
8	C	0.295956	0.659182	6e-06
9	C	0.262743	0.652404	5e-06
10	N	0.235321	0.616588	0
11	C	0.325496	0.695413	4e-06
12	O	0.31858	0.719703	7e-06
13	C	0.362168	0.703523	0.999999
14	C	0.388207	0.736576	0.999998
15	N	0.38294	0.765917	0
16	H	0.324679	0.584448	1e-06
17	H	0.255716	0.672522	8e-06
18	H	0.414573	0.741296	0.999997
19	C	0.63107	0.325901	0.999995
20	O	0.59986	0.320436	0.999991
21	C	0.659251	0.362424	0.999998
22	C	0.653746	0.389344	0
23	N	0.61881	0.383049	0
24	C	0.695344	0.368906	3e-06
25	O	0.720673	0.400386	5e-06
26	C	0.704044	0.340818	6e-06
27	C	0.737257	0.347596	5e-06
28	N	0.764679	0.383412	0
29	C	0.674504	0.304587	4e-06
30	O	0.68142	0.280297	7e-06
31	C	0.637832	0.296477	0.999999
32	C	0.611793	0.263424	0.999998
33	N	0.61706	0.234083	0
34	H	0.675321	0.415552	1e-06
35	H	0.744284	0.327478	8e-06
36	H	0.585427	0.258704	0.999997
37	C	0.402536	0.595938	0
38	C	0.401788	0.596669	0.804756
39	S	0.422676	0.576106	0.70806
40	C	0.43303	0.56592	0.928958
41	C	0.4528	0.546459	0.946629
42	C	0.464201	0.535237	0.787102
43	C	0.482901	0.516831	0.805694
44	C	0.494116	0.50579	0.645444
45	C	0.512658	0.487539	0.666353
46	C	0.520505	0.479815	0.848141
47	C	0.53915	0.461462	0.871877
48	C	0.547199	0.45354	0.053372
49	C	0.566969	0.434079	0.071042
50	C	0.579802	0.421446	0.927677
51	C	0.597464	0.404062	0
52	C	0.598209	0.403328	0.195244
53	S	0.57732	0.42389	0.291941
54	C	0.535798	0.464762	0.212898
55	C	0.517099	0.483169	0.194306
56	C	0.505883	0.494209	0.354556
57	C	0.487341	0.51246	0.333648
58	C	0.479494	0.520184	0.15186
59	C	0.460849	0.538537	0.128123
60	C	0.490591	0.509261	0.989383
61	C	0.509409	0.490738	0.010618
62	C	0.420199	0.578555	0.072324
63	H	0.390128	0.608145	0.713831
64	H	0.458694	0.540658	0.643359
65	H	0.4885	0.511318	0.5021
66	H	0.520926	0.4794	0.538612
67	H	0.54738	0.45336	0.744017
68	H	0.576702	0.424498	0.7767
69	H	0.609868	0.391851	0.28617
70	H	0.541305	0.459342	0.356642
71	H	0.511499	0.488681	0.497901
72	H	0.479073	0.520599	0.461389
73	H	0.452619	0.546638	0.255984
74	H	0.423301	0.575505	0.2233
75	C	0.403906	0.807942	0
76	C	0.403176	0.806475	0.804756
77	S	0.423694	0.847598	0.70806
78	C	0.433858	0.867977	0.928958
79	C	0.453275	0.906898	0.946629
80	C	0.464473	0.929343	0.787102
81	C	0.482838	0.966156	0.805694
82	C	0.493854	0.988237	0.645444
83	C	0.512065	0.024739	0.666353
84	C	0.519772	0.040187	0.848141
85	C	0.538085	0.076894	0.871877
86	C	0.545989	0.092739	0.053372
87	C	0.565407	0.131661	0.071042
88	C	0.578012	0.156926	0.927677
89	C	0.595358	0.191695	0
90	C	0.59609	0.193163	0.195244
91	S	0.575574	0.152039	0.291941
92	C	0.534792	0.070294	0.212898
93	C	0.516426	0.033481	0.194306
94	C	0.50541	0.011401	0.354556
95	C	0.487199	0.974898	0.333648
96	C	0.479493	0.95945	0.15186
97	C	0.46118	0.922743	0.128123
98	C	0.490391	0.981295	0.989383
99	C	0.508873	0.018342	0.010618
100	C	0.421251	0.842712	0.072324
101	H	0.391726	0.783522	0.713831
102	H	0.459064	0.918502	0.643359
103	H	0.488339	0.977181	0.5021
104	H	0.520186	0.041018	0.538612
105	H	0.546168	0.093097	0.744017
106	H	0.574967	0.150822	0.7767
107	H	0.607541	0.216116	0.28617
108	H	0.5402	0.081136	0.356642
109	H	0.510926	0.022457	0.497901
110	H	0.479078	0.95862	0.461389
111	H	0.453097	0.906541	0.255984
112	H	0.424294	0.848815	0.2233
113	C	0.193009	0.595575	0
114	C	0.194486	0.596312	0.804756
115	S	0.153081	0.575751	0.70806
116	C	0.132563	0.565559	0.928958
117	C	0.093375	0.546098	0.946629
118	C	0.070777	0.534875	0.787102
119	C	0.033712	0.516469	0.805694
120	C	0.01148	0.505428	0.645444
121	C	0.974728	0.487177	0.666353
122	C	0.959174	0.479453	0.848141
123	C	0.922216	0.461099	0.871877
124	C	0.906263	0.453177	0.053372
125	C	0.867075	0.433716	0.071042
126	C	0.841637	0.421084	0.927677
127	C	0.806629	0.403699	0
128	C	0.805152	0.402965	0.195244
129	S	0.846556	0.423527	0.291941
130	C	0.928861	0.464399	0.212898
131	C	0.965926	0.482806	0.194306
132	C	0.988158	0.493846	0.354556
133	C	0.02491	0.512097	0.333648
134	C	0.040464	0.519822	0.15186
135	C	0.077422	0.538175	0.128123
136	C	0.018469	0.508899	0.989383
137	C	0.981169	0.490375	0.010618
138	C	0.158001	0.578189	0.072324
139	H	0.217596	0.607789	0.713831
140	H	0.081692	0.540296	0.643359
141	H	0.022612	0.510957	0.5021
142	H	0.958338	0.479038	0.538612
143	H	0.905902	0.452998	0.744017
144	H	0.847782	0.424135	0.7767
145	H	0.782041	0.391488	0.28617
146	H	0.917945	0.458978	0.356642
147	H	0.977026	0.488318	0.497901
148	H	0.0413	0.520237	0.461389
149	H	0.093735	0.546277	0.255984
150	H	0.151856	0.575136	0.2233
