data_C102H48N12O6S18_2023-05-15_17:49:59
#******************************************
#
# CIF file created by Zeo++
# Zeo++ is an open source package to
# analyze microporous materials
#
#*******************************************

_cell_length_a		58.9661   
_cell_length_b		59.2645   
_cell_length_c		7   
_cell_angle_alpha		90   
_cell_angle_beta		90   
_cell_angle_gamma		119.78   

_symmetry_space_group_name_H-M		'P1'
_symmetry_Int_Tables_number		1
_symmetry_cell_setting		Monoclinic

loop_
_symmetry_equiv_pos_as_xyz
'+x,+y,+z'

loop_
_atom_site_label
_atom_site_type_symbol
_atom_site_fract_x
_atom_site_fract_y
_atom_site_fract_z
1	C	0.359622	0.672168	0.999995
2	O	0.382669	0.676213	0.999991
3	C	0.338774	0.645135	0.999998
4	C	0.342808	0.625209	0
5	N	0.368607	0.629869	0
6	C	0.312121	0.640337	3e-06
7	O	0.293385	0.617037	5e-06
8	C	0.305731	0.661127	6e-06
9	C	0.281202	0.65611	5e-06
10	N	0.260916	0.6296	0
11	C	0.327581	0.687943	4e-06
12	O	0.322503	0.705922	7e-06
13	C	0.354664	0.693947	0.999999
14	C	0.373926	0.718411	0.999998
15	N	0.370071	0.740128	0
16	H	0.326849	0.605812	1e-06
17	H	0.276038	0.671001	8e-06
18	H	0.393397	0.721904	0.999997
19	C	0.640378	0.327832	0.999995
20	O	0.617331	0.323787	0.999991
21	C	0.661226	0.354865	0.999998
22	C	0.657192	0.374791	0
23	N	0.631393	0.370131	0
24	C	0.687879	0.359663	3e-06
25	O	0.706615	0.382963	5e-06
26	C	0.694269	0.338873	6e-06
27	C	0.718798	0.34389	5e-06
28	N	0.739084	0.3704	0
29	C	0.672419	0.312057	4e-06
30	O	0.677497	0.294078	7e-06
31	C	0.645336	0.306053	0.999999
32	C	0.626074	0.281589	0.999998
33	N	0.629929	0.259872	0
34	H	0.673151	0.394188	1e-06
35	H	0.723962	0.328999	8e-06
36	H	0.606603	0.278096	0.999997
37	C	0.615658	0.385684	0
38	C	0.623414	0.378014	0.15982
39	C	0.615594	0.385744	0.329336
40	C	0.602174	0.399012	0.292788
41	C	0.591674	0.409393	0.433356
42	C	0.593093	0.407994	0.629836
43	C	0.580817	0.420129	0.728717
44	C	0.570091	0.430726	0.607204
45	C	0.556319	0.444337	0.662149
46	C	0.55137	0.449227	0.846231
47	C	0.537356	0.463078	0.851984
48	C	0.531669	0.468702	0.672442
49	C	0.517586	0.482622	0.624481
50	C	0.512461	0.487687	0.440194
51	N	0.499344	0.50065	0.401855
52	C	0.491174	0.508727	0.554772
53	C	0.47694	0.522796	0.515616
54	C	0.466468	0.533135	0.642048
55	C	0.453982	0.545479	0.548794
56	C	0.454975	0.544511	0.351816
57	C	0.444432	0.554938	0.21221
58	C	0.445432	0.553967	0.015225
59	C	0.432942	0.566313	0.92214
60	C	0.422483	0.576634	0.048565
61	C	0.408598	0.590354	0.999986
62	C	0.403231	0.595668	0.817624
63	C	0.389179	0.609549	0.817466
64	C	0.384342	0.614316	0
65	S	0.396223	0.602569	0.168651
66	S	0.428186	0.570981	0.279315
67	S	0.471211	0.528473	0.284557
68	C	0.496315	0.503647	0.738977
69	N	0.509418	0.490696	0.777957
70	S	0.543639	0.456872	0.50007
71	S	0.575298	0.425574	0.374
72	S	0.599404	0.401755	0.049687
73	H	0.634061	0.367487	0.157571
74	H	0.619772	0.38161	0.471627
75	H	0.602505	0.398696	0.702251
76	H	0.580057	0.420884	0.883016
77	H	0.557429	0.443238	0.973421
78	H	0.531631	0.468736	0.982697
79	H	0.518652	0.481568	0.314078
80	H	0.467486	0.532119	0.79603
81	H	0.444718	0.554629	0.625401
82	H	0.454695	0.544823	0.938534
83	H	0.431868	0.567387	0.768255
84	H	0.409056	0.589921	0.688049
85	H	0.383134	0.61553	0.690129
86	H	0.490076	0.509814	0.86451
87	C	0.613858	0.228498	0
88	C	0.621516	0.243834	0.15982
89	C	0.613798	0.228374	0.329336
90	C	0.600551	0.201842	0.292788
91	C	0.590188	0.181083	0.433356
92	C	0.591584	0.183885	0.629836
93	C	0.579469	0.159616	0.728717
94	C	0.568889	0.138418	0.607204
95	C	0.5553	0.111194	0.662149
96	C	0.550419	0.101412	0.846231
97	C	0.53659	0.073711	0.851984
98	C	0.530975	0.062465	0.672442
99	C	0.517078	0.034626	0.624481
100	C	0.512022	0.024496	0.440194
101	N	0.49908	0.998568	0.401855
102	C	0.491016	0.982415	0.554772
103	C	0.47697	0.954277	0.515616
104	C	0.466648	0.933588	0.642048
105	C	0.454323	0.908902	0.548794
106	C	0.45529	0.910852	0.351816
107	C	0.44488	0.890004	0.21221
108	C	0.445849	0.891963	0.015225
109	C	0.433524	0.867274	0.92214
110	C	0.423219	0.846614	0.048565
111	C	0.409522	0.819171	0.999986
112	C	0.404216	0.808551	0.817624
113	C	0.390358	0.780781	0.817466
114	C	0.385599	0.771233	0
115	S	0.397327	0.794724	0.168651
116	S	0.428863	0.857904	0.279315
117	S	0.471302	0.942938	0.284557
118	C	0.496088	0.992577	0.738977
119	N	0.509018	0.018478	0.777957
120	S	0.542786	0.086126	0.50007
121	S	0.574033	0.148715	0.374
122	S	0.597814	0.196362	0.049687
123	H	0.632026	0.264885	0.157571
124	H	0.617925	0.236637	0.471627
125	H	0.600868	0.202486	0.702251
126	H	0.578715	0.15811	0.883016
127	H	0.556398	0.11339	0.973421
128	H	0.530942	0.062394	0.982697
129	H	0.51813	0.036733	0.314078
130	H	0.467662	0.93561	0.79603
131	H	0.445188	0.890595	0.625401
132	H	0.454978	0.910264	0.938534
133	H	0.432451	0.865137	0.768255
134	H	0.409954	0.820056	0.688049
135	H	0.384387	0.768826	0.690129
136	H	0.48993	0.980243	0.86451
137	C	0.770078	0.385415	0
138	C	0.754665	0.377749	0.15982
139	C	0.770202	0.385479	0.329336
140	C	0.796869	0.398742	0.292788
141	C	0.817733	0.409121	0.433356
142	C	0.814917	0.407718	0.629836
143	C	0.839308	0.419852	0.728717
144	C	0.860614	0.430453	0.607204
145	C	0.887975	0.444065	0.662149
146	C	0.897806	0.448957	0.846231
147	C	0.925648	0.462808	0.851984
148	C	0.936951	0.46843	0.672442
149	C	0.96493	0.482349	0.624481
150	C	0.975112	0.487415	0.440194
151	N	0.00117	0.500379	0.401855
152	C	0.017405	0.508455	0.554772
153	C	0.045685	0.522524	0.515616
154	C	0.066478	0.532874	0.642048
155	C	0.091289	0.545216	0.548794
156	C	0.089329	0.544233	0.351816
157	C	0.110283	0.554654	0.21221
158	C	0.108314	0.553666	0.015225
159	C	0.133128	0.566011	0.92214
160	C	0.153892	0.576349	0.048565
161	C	0.181474	0.590072	0.999986
162	C	0.192148	0.595378	0.817624
163	C	0.220057	0.609266	0.817466
164	C	0.229654	0.614047	0
165	S	0.206044	0.602304	0.168651
166	S	0.142545	0.570712	0.279315
167	S	0.057081	0.528186	0.284557
168	C	0.007192	0.503374	0.738977
169	N	0.981159	0.490423	0.777957
170	S	0.91317	0.456599	0.50007
171	S	0.850264	0.425307	0.374
172	S	0.802377	0.40148	0.049687
173	H	0.733508	0.367226	0.157571
174	H	0.761898	0.381349	0.471627
175	H	0.796222	0.398415	0.702251
176	H	0.840822	0.420603	0.883016
177	H	0.885768	0.442969	0.973421
178	H	0.937021	0.468467	0.982697
179	H	0.962813	0.481296	0.314078
180	H	0.064446	0.531868	0.79603
181	H	0.109688	0.554372	0.625401
182	H	0.089921	0.54451	0.938534
183	H	0.135275	0.567072	0.768255
184	H	0.180584	0.58962	0.688049
185	H	0.232074	0.615242	0.690129
186	H	0.019588	0.50954	0.86451
