data_C84H42N6O6S12_2023-05-15_16:17:22
#******************************************
#
# CIF file created by Zeo++
# Zeo++ is an open source package to
# analyze microporous materials
#
#*******************************************

_cell_length_a		49.3075   
_cell_length_b		49.606   
_cell_length_c		7   
_cell_angle_alpha		90   
_cell_angle_beta		90   
_cell_angle_gamma		119.737   

_symmetry_space_group_name_H-M		'P1'
_symmetry_Int_Tables_number		1
_symmetry_cell_setting		Monoclinic

loop_
_symmetry_equiv_pos_as_xyz
'+x,+y,+z'

loop_
_atom_site_label
_atom_site_type_symbol
_atom_site_fract_x
_atom_site_fract_y
_atom_site_fract_z
1	C	0.364766	0.673236	0.999995
2	O	0.392324	0.678067	0.999991
3	C	0.339862	0.640954	0.999998
4	C	0.344706	0.617159	0
5	N	0.375554	0.622723	0
6	C	0.307993	0.635224	3e-06
7	O	0.285611	0.607399	5e-06
8	C	0.300329	0.660051	6e-06
9	C	0.271002	0.65406	5e-06
10	N	0.246769	0.622402	0
11	C	0.326432	0.692075	4e-06
12	O	0.320341	0.713545	7e-06
13	C	0.358814	0.699244	0.999999
14	C	0.381824	0.72846	0.999998
15	N	0.377192	0.754394	0
16	H	0.325642	0.593994	1e-06
17	H	0.26481	0.671842	8e-06
18	H	0.405105	0.732631	0.999997
19	C	0.635234	0.326764	0.999995
20	O	0.607676	0.321933	0.999991
21	C	0.660138	0.359046	0.999998
22	C	0.655294	0.382841	0
23	N	0.624446	0.377277	0
24	C	0.692007	0.364776	3e-06
25	O	0.714389	0.392601	5e-06
26	C	0.699671	0.339949	6e-06
27	C	0.728998	0.34594	5e-06
28	N	0.753231	0.377598	0
29	C	0.673568	0.307925	4e-06
30	O	0.679659	0.286455	7e-06
31	C	0.641186	0.300756	0.999999
32	C	0.618176	0.27154	0.999998
33	N	0.622808	0.245606	0
34	H	0.674358	0.406006	1e-06
35	H	0.73519	0.328158	8e-06
36	H	0.594895	0.267369	0.999997
37	C	0.394388	0.60415	0
38	C	0.393924	0.604609	0.195474
39	C	0.409442	0.589304	0.273998
40	C	0.421169	0.577738	0.135824
41	C	0.438043	0.561096	0.168734
42	C	0.44557	0.553674	0.343709
43	C	0.462318	0.537158	0.327509
44	C	0.467578	0.531968	0.140228
45	C	0.483973	0.5158	0.06689
46	C	0.496743	0.5032	0.19368
47	C	0.512391	0.487768	0.128449
48	C	0.51602	0.484194	0.93311
49	C	0.532414	0.468025	0.859773
50	C	0.537669	0.462829	0.672492
51	C	0.554418	0.446314	0.656292
52	C	0.561952	0.438898	0.831266
53	C	0.578829	0.422259	0.864176
54	C	0.590558	0.410696	0.726002
55	C	0.606078	0.395393	0.804526
56	C	0.605612	0.39585	0
57	S	0.587129	0.414072	0.089066
58	S	0.548328	0.452347	0.011803
59	C	0.50325	0.496793	0.80632
60	C	0.487601	0.512225	0.871551
61	S	0.451672	0.547653	0.988198
62	S	0.412867	0.585924	0.910934
63	H	0.3832	0.615186	0.279082
64	H	0.411755	0.587024	0.42614
65	H	0.439492	0.559671	0.479647
66	H	0.470021	0.529563	0.450684
67	H	0.494909	0.505005	0.347322
68	H	0.521603	0.478678	0.236267
69	H	0.529961	0.470419	0.549317
70	H	0.560492	0.440314	0.520353
71	H	0.588246	0.412977	0.573861
72	H	0.616804	0.384818	0.720918
73	H	0.505084	0.494988	0.652678
74	H	0.478389	0.521314	0.763733
75	C	0.395728	0.79154	0
76	C	0.395271	0.790623	0.195474
77	C	0.410546	0.821232	0.273998
78	C	0.422089	0.844361	0.135824
79	C	0.438698	0.877644	0.168734
80	C	0.446105	0.892489	0.343709
81	C	0.462589	0.925521	0.327509
82	C	0.467769	0.935899	0.140228
83	C	0.483906	0.968235	0.06689
84	C	0.496481	0.993428	0.19368
85	C	0.511884	0.024292	0.128449
86	C	0.515451	0.031445	0.93311
87	C	0.531588	0.063781	0.859773
88	C	0.536774	0.074159	0.672492
89	C	0.553257	0.10719	0.656292
90	C	0.560657	0.122035	0.831266
91	C	0.577264	0.155318	0.864176
92	C	0.588805	0.178448	0.726002
93	C	0.604078	0.209056	0.804526
94	C	0.603622	0.20814	0
95	S	0.585435	0.17169	0.089066
96	S	0.547235	0.095152	0.011803
97	C	0.502876	0.006252	0.80632
98	C	0.487474	0.975388	0.871551
99	S	0.452115	0.904528	0.988198
100	S	0.413919	0.827989	0.910934
101	H	0.384714	0.769471	0.279082
102	H	0.412821	0.825792	0.42614
103	H	0.440121	0.880499	0.479647
104	H	0.47017	0.940713	0.450684
105	H	0.49468	0.989814	0.347322
106	H	0.520956	0.042466	0.236267
107	H	0.529199	0.058967	0.549317
108	H	0.559245	0.119181	0.520353
109	H	0.586528	0.173887	0.573861
110	H	0.614632	0.230209	0.720918
111	H	0.504677	0.009865	0.652678
112	H	0.478402	0.957214	0.763733
113	C	0.209399	0.603829	0
114	C	0.21032	0.604287	0.195474
115	C	0.179527	0.588983	0.273998
116	C	0.156258	0.577419	0.135824
117	C	0.122774	0.560778	0.168734
118	C	0.107839	0.553355	0.343709
119	C	0.074608	0.53684	0.327509
120	C	0.064167	0.531652	0.140228
121	C	0.031636	0.515484	0.06689
122	C	0.006291	0.502891	0.19368
123	C	0.97524	0.487459	0.128449
124	C	0.968044	0.48388	0.93311
125	C	0.935513	0.467714	0.859773
126	C	0.925072	0.462531	0.672492
127	C	0.89184	0.446014	0.656292
128	C	0.876906	0.438585	0.831266
129	C	0.843422	0.421942	0.864176
130	C	0.820153	0.410375	0.726002
131	C	0.789359	0.39507	0.804526
132	C	0.790281	0.395529	0
133	S	0.826951	0.413756	0.089066
134	S	0.903952	0.45202	0.011803
135	C	0.993389	0.496474	0.80632
136	C	0.02444	0.511906	0.871551
137	S	0.095728	0.547338	0.988198
138	S	0.172729	0.585605	0.910934
139	H	0.231601	0.614862	0.279082
140	H	0.17494	0.586703	0.42614
141	H	0.119902	0.55935	0.479647
142	H	0.059324	0.529243	0.450684
143	H	0.009926	0.5047	0.347322
144	H	0.956956	0.478375	0.236267
145	H	0.940355	0.470133	0.549317
146	H	0.879778	0.440024	0.520353
147	H	0.82474	0.412654	0.573861
148	H	0.768079	0.384492	0.720918
149	H	0.989754	0.494666	0.652678
150	H	0.042723	0.520991	0.763733
