data_C96H48N6O6S18_2023-05-15_13:43:12
#******************************************
#
# CIF file created by Zeo++
# Zeo++ is an open source package to
# analyze microporous materials
#
#*******************************************

_cell_length_a		37.5665   
_cell_length_b		37.8651   
_cell_length_c		7   
_cell_angle_alpha		90   
_cell_angle_beta		90   
_cell_angle_gamma		119.656   

_symmetry_space_group_name_H-M		'P1'
_symmetry_Int_Tables_number		1
_symmetry_cell_setting		Monoclinic

loop_
_symmetry_equiv_pos_as_xyz
'+x,+y,+z'

loop_
_atom_site_label
_atom_site_type_symbol
_atom_site_fract_x
_atom_site_fract_y
_atom_site_fract_z
1	C	0.374575	0.675266	0.999995
2	O	0.410736	0.68159	0.999991
3	C	0.341958	0.633008	0.999998
4	C	0.348368	0.60186	0
5	N	0.388845	0.609144	0
6	C	0.30014	0.625508	3e-06
7	O	0.270824	0.589085	5e-06
8	C	0.290028	0.658006	6e-06
9	C	0.251547	0.650164	5e-06
10	N	0.21981	0.608724	0
11	C	0.324219	0.699927	4e-06
12	O	0.316179	0.728031	7e-06
13	C	0.366707	0.709311	0.999999
14	C	0.396846	0.747554	0.999998
15	N	0.390709	0.781502	0
16	H	0.323395	0.571538	1e-06
17	H	0.243382	0.673442	8e-06
18	H	0.427393	0.753015	0.999997
19	C	0.625425	0.324734	0.999995
20	O	0.589264	0.31841	0.999991
21	C	0.658042	0.366992	0.999998
22	C	0.651632	0.39814	0
23	N	0.611155	0.390856	0
24	C	0.69986	0.374492	3e-06
25	O	0.729176	0.410915	5e-06
26	C	0.709972	0.341994	6e-06
27	C	0.748453	0.349836	5e-06
28	N	0.78019	0.391276	0
29	C	0.675781	0.300073	4e-06
30	O	0.683821	0.271969	7e-06
31	C	0.633293	0.290689	0.999999
32	C	0.603154	0.252446	0.999998
33	N	0.609291	0.218498	0
34	H	0.676605	0.428462	1e-06
35	H	0.756618	0.326558	8e-06
36	H	0.572607	0.246985	0.999997
37	C	0.586395	0.415168	0
38	C	0.58416	0.378445	0.968227
39	S	0.56743	0.348468	0.167324
40	C	0.563127	0.38486	0.297733
41	C	0.549272	0.377871	0.494716
42	C	0.537435	0.343446	0.604475
43	C	0.525543	0.347269	0.793607
44	C	0.528554	0.384623	0.826665
45	C	0.518441	0.397946	0.002065
46	C	0.49146	0.373363	0.141532
47	C	0.488353	0.395882	0.297701
48	C	0.512409	0.437379	0.273765
49	C	0.517408	0.4688	0.400816
50	C	0.507116	0.497466	0.36533
51	C	0.487755	0.501087	0.197071
52	C	0.457794	0.472004	0.081198
53	C	0.447079	0.488971	0.924431
54	C	0.468458	0.53097	0.923291
55	C	0.465748	0.558191	0.785911
56	C	0.480431	0.599494	0.803109
57	C	0.472506	0.616745	0.638322
58	C	0.451891	0.588465	0.496391
59	C	0.438918	0.594976	0.310859
60	C	0.422943	0.567893	0.159765
61	C	0.413605	0.584832	0
62	C	0.422319	0.624067	0.028551
63	S	0.442026	0.640629	0.251437
64	S	0.442485	0.54122	0.568
65	S	0.500909	0.54894	0.115994
66	S	0.540316	0.448166	0.066298
67	S	0.545491	0.414234	0.62569
68	C	0.574495	0.419229	0.187231
69	H	0.591419	0.367601	0.83921
70	H	0.537189	0.316327	0.553329
71	H	0.515518	0.323484	0.900139
72	H	0.474281	0.340514	0.132538
73	H	0.468834	0.382181	0.420894
74	H	0.531118	0.469445	0.538564
75	H	0.514471	0.520418	0.475339
76	H	0.443953	0.439618	0.106077
77	H	0.424427	0.470647	0.818336
78	H	0.49624	0.61708	0.928292
79	H	0.481931	0.648724	0.626523
80	H	0.418212	0.537268	0.163832
81	H	0.418209	0.643862	0.930811
82	H	0.57428	0.446113	0.238601
83	C	0.584188	0.169454	0
84	C	0.621091	0.203713	0.968227
85	S	0.651318	0.216943	0.167324
86	C	0.614792	0.176548	0.297733
87	C	0.621909	0.169789	0.494716
88	C	0.656569	0.192273	0.604475
89	C	0.652812	0.176719	0.793607
90	C	0.615269	0.1426	0.826665
91	C	0.601957	0.119371	0.002065
92	C	0.626837	0.117108	0.141532
93	C	0.604238	0.091673	0.297701
94	C	0.562389	0.074247	0.273765
95	C	0.530793	0.047986	0.400816
96	C	0.502069	0.009342	0.36533
97	C	0.498566	0.986605	0.197071
98	C	0.527987	0.985864	0.081198
99	C	0.511018	0.95842	0.924431
100	C	0.468682	0.937849	0.923291
101	C	0.441359	0.908137	0.785911
102	C	0.399769	0.881637	0.803109
103	C	0.382495	0.856669	0.638322
104	C	0.411045	0.864372	0.496391
105	C	0.404594	0.84508	0.310859
106	C	0.431909	0.856181	0.159765
107	C	0.414959	0.830126	0
108	C	0.375487	0.799778	0.028551
109	S	0.358715	0.802815	0.251437
110	S	0.458567	0.90199	0.568
111	S	0.450408	0.952088	0.115994
112	S	0.55136	0.091126	0.066298
113	S	0.585409	0.12994	0.62569
114	C	0.580191	0.153656	0.187231
115	H	0.631932	0.221659	0.83921
116	H	0.683812	0.218961	0.553329
117	H	0.676772	0.190428	0.900139
118	H	0.659952	0.132745	0.132538
119	H	0.618135	0.08598	0.420894
120	H	0.53005	0.0609	0.538564
121	H	0.478964	0.993821	0.475339
122	H	0.560613	0.00434	0.106077
123	H	0.52958	0.954221	0.818336
124	H	0.381995	0.879803	0.928292
125	H	0.350308	0.83423	0.626523
126	H	0.462704	0.881917	0.163832
127	H	0.355632	0.776056	0.930811
128	H	0.553188	0.126746	0.238601
129	C	0.828781	0.414748	0
130	C	0.794113	0.417212	0.968227
131	S	0.780616	0.43396	0.167324
132	C	0.821444	0.437962	0.297733
133	C	0.828183	0.45171	0.494716
134	C	0.80536	0.463651	0.604475
135	C	0.821009	0.475382	0.793607
136	C	0.855541	0.472147	0.826665
137	C	0.878966	0.482054	0.002065
138	C	0.881067	0.508899	0.141532
139	C	0.906773	0.511815	0.297701
140	C	0.924566	0.487744	0.273765
141	C	0.951163	0.482585	0.400816
142	C	0.990178	0.492562	0.36533
143	C	0.013042	0.511679	0.197071
144	C	0.013583	0.541503	0.081198
145	C	0.041267	0.551979	0.924431
146	C	0.062223	0.530551	0.923291
147	C	0.092257	0.533042	0.785911
148	C	0.119164	0.518239	0.803109
149	C	0.144363	0.525956	0.638322
150	C	0.136428	0.546533	0.496391
151	C	0.155852	0.559315	0.310859
152	C	0.144512	0.575296	0.159765
153	C	0.1708	0.584412	0
154	C	0.201557	0.575525	0.028551
155	S	0.198623	0.555926	0.251437
156	S	0.098313	0.55616	0.568
157	S	0.048047	0.498342	0.115994
158	S	0.907688	0.460078	0.066298
159	S	0.868464	0.455196	0.62569
160	C	0.844677	0.426485	0.187231
161	H	0.776012	0.410109	0.83921
162	H	0.778363	0.464082	0.553329
163	H	0.807073	0.485458	0.900139
164	H	0.865131	0.526111	0.132538
165	H	0.912394	0.531208	0.420894
166	H	0.938196	0.469025	0.538564
167	H	0.005929	0.485131	0.475339
168	H	0.994798	0.555412	0.106077
169	H	0.045357	0.574502	0.818336
170	H	0.121129	0.502488	0.928292
171	H	0.167125	0.516416	0.626523
172	H	0.118447	0.580186	0.163832
173	H	0.225523	0.579452	0.930811
174	H	0.871896	0.426512	0.238601
