data_C60H24N6O6S12_2023-05-12_16:19:37
#******************************************
#
# CIF file created by Zeo++
# Zeo++ is an open source package to
# analyze microporous materials
#
#*******************************************

_cell_length_a		36.8961   
_cell_length_b		37.1947   
_cell_length_c		7   
_cell_angle_alpha		90   
_cell_angle_beta		90   
_cell_angle_gamma		119.649   

_symmetry_space_group_name_H-M		'P1'
_symmetry_Int_Tables_number		1
_symmetry_cell_setting		Monoclinic

loop_
_symmetry_equiv_pos_as_xyz
'+x,+y,+z'

loop_
_atom_site_label
_atom_site_type_symbol
_atom_site_fract_x
_atom_site_fract_y
_atom_site_fract_z
1	C	0.375324	0.675421	0.999995
2	O	0.41214	0.681858	0.999991
3	C	0.342119	0.632404	0.999998
4	C	0.348649	0.600696	0
5	N	0.389861	0.608111	0
6	C	0.299542	0.624768	3e-06
7	O	0.269698	0.587692	5e-06
8	C	0.289242	0.657851	6e-06
9	C	0.250063	0.649867	5e-06
10	N	0.217755	0.607683	0
11	C	0.324049	0.700524	4e-06
12	O	0.315859	0.729133	7e-06
13	C	0.367308	0.710077	0.999999
14	C	0.397989	0.749007	0.999998
15	N	0.391737	0.783565	0
16	H	0.323226	0.569829	1e-06
17	H	0.241747	0.673564	8e-06
18	H	0.429091	0.754566	0.999997
19	C	0.624676	0.324579	0.999995
20	O	0.58786	0.318142	0.999991
21	C	0.657881	0.367596	0.999998
22	C	0.651351	0.399304	0
23	N	0.610139	0.391889	0
24	C	0.700458	0.375232	3e-06
25	O	0.730302	0.412308	5e-06
26	C	0.710758	0.342149	6e-06
27	C	0.749937	0.350133	5e-06
28	N	0.782245	0.392317	0
29	C	0.675951	0.299476	4e-06
30	O	0.684141	0.270867	7e-06
31	C	0.632692	0.289923	0.999999
32	C	0.602011	0.250993	0.999998
33	N	0.608263	0.216435	0
34	H	0.676774	0.430171	1e-06
35	H	0.758253	0.326436	8e-06
36	H	0.570909	0.245434	0.999997
37	C	0.584926	0.416638	0
38	C	0.592317	0.409383	0.183882
39	S	0.572	0.429326	0.344074
40	C	0.553306	0.447676	0.166069
41	C	0.528823	0.471708	0.208366
42	C	0.520817	0.479566	0.391115
43	S	0.493986	0.505903	0.403198
44	C	0.492281	0.507576	0.153584
45	C	0.512029	0.488192	0.070734
46	S	0.510278	0.489911	0.821158
47	C	0.483439	0.516256	0.833246
48	C	0.475473	0.524075	0.016032
49	C	0.451033	0.548065	0.059844
50	C	0.435612	0.563203	0.920186
51	C	0.415074	0.583362	0
52	C	0.415029	0.583406	0.195733
53	S	0.440155	0.558743	0.283591
54	C	0.562604	0.438548	0.987817
55	H	0.608482	0.393516	0.232688
56	H	0.529489	0.471054	0.524102
57	H	0.474792	0.524744	0.700249
58	H	0.438779	0.560094	0.768308
59	H	0.401673	0.596516	0.291629
60	H	0.554139	0.446858	0.854033
61	C	0.58271	0.166511	0
62	C	0.589946	0.18102	0.183882
63	S	0.570055	0.141134	0.344074
64	C	0.551753	0.104435	0.166069
65	C	0.527784	0.056371	0.208366
66	C	0.519946	0.040654	0.391115
67	S	0.493678	0.987981	0.403198
68	C	0.492009	0.984634	0.153584
69	C	0.511342	0.023402	0.070734
70	S	0.509628	0.019964	0.821158
71	C	0.483352	0.967275	0.833246
72	C	0.475553	0.951636	0.016032
73	C	0.451625	0.903656	0.059844
74	C	0.436528	0.873381	0.920186
75	C	0.416421	0.833062	0
76	C	0.416377	0.832974	0.195733
77	S	0.440976	0.882301	0.283591
78	C	0.560856	0.12269	0.987817
79	H	0.605771	0.212755	0.232688
80	H	0.528436	0.057679	0.524102
81	H	0.474886	0.950299	0.700249
82	H	0.439628	0.879599	0.768308
83	H	0.403301	0.806754	0.291629
84	H	0.552569	0.106071	0.854033
85	C	0.831716	0.41621	0
86	C	0.81709	0.408955	0.183882
87	S	0.857298	0.428898	0.344074
88	C	0.894293	0.447248	0.166069
89	C	0.942745	0.47128	0.208366
90	C	0.958589	0.479138	0.391115
91	S	0.011688	0.505475	0.403198
92	C	0.015062	0.507149	0.153584
93	C	0.975981	0.487765	0.070734
94	S	0.979447	0.489484	0.821158
95	C	0.032561	0.515828	0.833246
96	C	0.048326	0.523648	0.016032
97	C	0.096694	0.547638	0.059844
98	C	0.127213	0.562775	0.920186
99	C	0.167857	0.582934	0
100	C	0.167946	0.582979	0.195733
101	S	0.118221	0.558315	0.283591
102	C	0.875891	0.438121	0.987817
103	H	0.785099	0.393088	0.232688
104	H	0.941427	0.470626	0.524102
105	H	0.049674	0.524316	0.700249
106	H	0.120945	0.559666	0.768308
107	H	0.194378	0.596089	0.291629
108	H	0.892645	0.44643	0.854033
