data_C120H60N6O6S18_2023-05-12_12:36:24
#******************************************
#
# CIF file created by Zeo++
# Zeo++ is an open source package to
# analyze microporous materials
#
#*******************************************

_cell_length_a		59.8361   
_cell_length_b		60.1345   
_cell_length_c		7   
_cell_angle_alpha		90   
_cell_angle_beta		90   
_cell_angle_gamma		119.783   

_symmetry_space_group_name_H-M		'P1'
_symmetry_Int_Tables_number		1
_symmetry_cell_setting		Monoclinic

loop_
_symmetry_equiv_pos_as_xyz
'+x,+y,+z'

loop_
_atom_site_label
_atom_site_type_symbol
_atom_site_fract_x
_atom_site_fract_y
_atom_site_fract_z
1	C	0.35924	0.672088	0.999995
2	O	0.381953	0.676075	0.999991
3	C	0.338694	0.645446	0.999998
4	C	0.342667	0.625808	0
5	N	0.368092	0.6304	0
6	C	0.312427	0.640717	3e-06
7	O	0.293963	0.617754	5e-06
8	C	0.306132	0.661207	6e-06
9	C	0.28196	0.656262	5e-06
10	N	0.261967	0.630135	0
11	C	0.327666	0.687636	4e-06
12	O	0.322663	0.705355	7e-06
13	C	0.354356	0.693553	0.999999
14	C	0.373339	0.717664	0.999998
15	N	0.369542	0.739067	0
16	H	0.326939	0.60669	1e-06
17	H	0.276871	0.670938	8e-06
18	H	0.392527	0.721107	0.999997
19	C	0.64076	0.327912	0.999995
20	O	0.618047	0.323925	0.999991
21	C	0.661306	0.354554	0.999998
22	C	0.657333	0.374192	0
23	N	0.631908	0.3696	0
24	C	0.687573	0.359283	3e-06
25	O	0.706037	0.382246	5e-06
26	C	0.693868	0.338793	6e-06
27	C	0.71804	0.343738	5e-06
28	N	0.738033	0.369865	0
29	C	0.672334	0.312364	4e-06
30	O	0.677337	0.294645	7e-06
31	C	0.645644	0.306447	0.999999
32	C	0.626661	0.282336	0.999998
33	N	0.630458	0.260933	0
34	H	0.673061	0.39331	1e-06
35	H	0.723129	0.329062	8e-06
36	H	0.607473	0.278893	0.999997
37	C	0.383597	0.615072	0
38	C	0.396252	0.601961	0.044097
39	C	0.406309	0.596447	0.876721
40	C	0.421832	0.581577	0.873507
41	C	0.427776	0.57227	0.034229
42	C	0.441735	0.559343	0.990048
43	C	0.451321	0.546395	0.140482
44	C	0.447676	0.546427	0.33479
45	C	0.45822	0.533175	0.436219
46	C	0.469364	0.52314	0.316496
47	C	0.481997	0.50836	0.367114
48	C	0.475997	0.485549	0.272449
49	C	0.487824	0.471423	0.324864
50	C	0.50591	0.479748	0.473563
51	C	0.517875	0.465672	0.528281
52	C	0.535989	0.473998	0.677005
53	C	0.548199	0.459113	0.736531
54	C	0.552163	0.453107	0.919491
55	C	0.564757	0.438235	0.921775
56	C	0.570267	0.433466	0.740328
57	C	0.58391	0.417441	0.692984
58	C	0.591732	0.406413	0.830748
59	S	0.605707	0.390148	0.73403
60	C	0.601544	0.397758	0.506737
61	C	0.610175	0.389099	0.321415
62	C	0.621963	0.374348	0.326357
63	S	0.628956	0.368037	0.102146
64	C	0.616403	0.384928	0
65	C	0.606967	0.395287	0.129908
66	C	0.589684	0.412419	0.505131
67	S	0.560424	0.447063	0.570088
68	C	0.541958	0.496799	0.771908
69	C	0.530219	0.511001	0.719156
70	C	0.512125	0.502692	0.570406
71	C	0.500054	0.516686	0.516126
72	S	0.467478	0.53059	0.082722
73	C	0.445924	0.559388	0.796545
74	S	0.43329	0.574953	0.670732
75	C	0.400731	0.605739	0.71404
76	S	0.383571	0.620933	0.763632
77	H	0.39811	0.596577	0.188151
78	H	0.422313	0.574475	0.17713
79	H	0.437965	0.555386	0.403576
80	H	0.45734	0.530859	0.590031
81	H	0.46186	0.478353	0.157758
82	H	0.482681	0.453752	0.248481
83	H	0.512761	0.447838	0.454436
84	H	0.546019	0.458833	0.046861
85	H	0.569288	0.431504	0.051569
86	H	0.59004	0.406882	0.984091
87	H	0.626907	0.366806	0.449345
88	H	0.59828	0.406669	0.089805
89	H	0.585239	0.419274	0.375721
90	H	0.555987	0.503872	0.887288
91	H	0.535353	0.52865	0.79562
92	H	0.504983	0.534461	0.590254
93	H	0.455835	0.551171	0.720894
94	H	0.405778	0.604527	0.567666
95	C	0.384845	0.769724	0
96	C	0.397938	0.795343	0.044097
97	C	0.403424	0.810818	0.876721
98	C	0.418268	0.841035	0.873507
99	C	0.427575	0.856204	0.034229
100	C	0.440477	0.882933	0.990048
101	C	0.45342	0.905343	0.140482
102	C	0.453404	0.901693	0.33479
103	C	0.466647	0.925356	0.436219
104	C	0.476661	0.94641	0.316496
105	C	0.491428	0.97367	0.367114
106	C	0.514328	0.990424	0.272449
107	C	0.528443	0.016231	0.324864
108	C	0.520015	0.025899	0.473563
109	C	0.534079	0.051794	0.528281
110	C	0.525651	0.061489	0.677005
111	C	0.540524	0.088432	0.736531
112	C	0.546529	0.098347	0.919491
113	C	0.561388	0.125659	0.921775
114	C	0.566147	0.135878	0.740328
115	C	0.582157	0.165379	0.692984
116	C	0.593182	0.184125	0.830748
117	S	0.609432	0.214194	0.73403
118	C	0.601819	0.202485	0.506737
119	C	0.610465	0.219675	0.321415
120	C	0.625205	0.246066	0.326357
121	S	0.631503	0.259292	0.102146
122	C	0.61462	0.230012	0
123	C	0.604272	0.210328	0.129908
124	C	0.587168	0.176112	0.505131
125	S	0.552555	0.112568	0.570088
126	C	0.50276	0.044714	0.771908
127	C	0.488568	0.018917	0.719156
128	C	0.49698	0.009227	0.570406
129	C	0.483	0.983308	0.516126
130	S	0.469198	0.937121	0.082722
131	C	0.440413	0.887047	0.796545
132	S	0.42486	0.859007	0.670732
133	C	0.39413	0.796027	0.71404
134	S	0.378968	0.763862	0.763632
135	H	0.403329	0.802548	0.188151
136	H	0.425387	0.848584	0.17713
137	H	0.444461	0.883129	0.403576
138	H	0.468973	0.926787	0.590031
139	H	0.521607	0.983552	0.157758
140	H	0.546185	0.028718	0.248481
141	H	0.551986	0.064473	0.454436
142	H	0.540814	0.086546	0.046861
143	H	0.568118	0.136859	0.051569
144	H	0.592719	0.181978	0.984091
145	H	0.632747	0.258484	0.449345
146	H	0.592896	0.190371	0.089805
147	H	0.580313	0.164873	0.375721
148	H	0.495605	0.0516	0.887288
149	H	0.470848	0.006444	0.79562
150	H	0.465153	0.970504	0.590254
151	H	0.44861	0.905069	0.720894
152	H	0.395323	0.802245	0.567666
153	C	0.231158	0.614807	0
154	C	0.20541	0.602299	0.044097
155	C	0.189868	0.592338	0.876721
156	C	0.159501	0.576991	0.873507
157	C	0.144249	0.571129	0.034229
158	C	0.117388	0.557326	0.990048
159	C	0.09486	0.547865	0.140482
160	C	0.09852	0.551483	0.33479
161	C	0.074733	0.541073	0.436219
162	C	0.053576	0.530052	0.316496
163	C	0.026175	0.517573	0.367114
164	C	0.009274	0.52363	0.272449
165	C	0.983334	0.511949	0.324864
166	C	0.973675	0.493955	0.473563
167	C	0.947646	0.482137	0.528281
168	C	0.93796	0.464116	0.677005
169	C	0.910878	0.452058	0.736531
170	C	0.900908	0.448149	0.919491
171	C	0.873455	0.435709	0.921775
172	C	0.863186	0.430259	0.740328
173	C	0.833533	0.416782	0.692984
174	C	0.814686	0.409065	0.830748
175	S	0.784462	0.39526	0.73403
176	C	0.796238	0.39936	0.506737
177	C	0.778961	0.390829	0.321415
178	C	0.752432	0.379189	0.326357
179	S	0.739141	0.372274	0.102146
180	C	0.768578	0.384663	0
181	C	0.788361	0.393987	0.129908
182	C	0.822749	0.411072	0.505131
183	S	0.886621	0.439972	0.570088
184	C	0.954883	0.45809	0.771908
185	C	0.980813	0.469684	0.719156
186	C	0.990495	0.487685	0.570406
187	C	0.016547	0.499609	0.516126
188	S	0.062924	0.531892	0.082722
189	C	0.113263	0.553167	0.796545
190	S	0.14145	0.565643	0.670732
191	C	0.20474	0.597836	0.71404
192	S	0.237061	0.614808	0.763632
193	H	0.198161	0.600478	0.188151
194	H	0.1519	0.576544	0.17713
195	H	0.117174	0.561087	0.403576
196	H	0.073288	0.541957	0.590031
197	H	0.016134	0.537698	0.157758
198	H	0.970734	0.517132	0.248481
199	H	0.934854	0.487292	0.454436
200	H	0.912767	0.454224	0.046861
201	H	0.862194	0.431239	0.051569
202	H	0.816842	0.410743	0.984091
203	H	0.739946	0.374312	0.449345
204	H	0.808424	0.402563	0.089805
205	H	0.834048	0.415455	0.375721
206	H	0.948008	0.44413	0.887288
207	H	0.993399	0.464509	0.79562
208	H	0.029465	0.494638	0.590254
209	H	0.095155	0.543362	0.720894
210	H	0.1985	0.59283	0.567666
