data_C102H51N9O6S18_2023-05-13_02:12:55
#******************************************
#
# CIF file created by Zeo++
# Zeo++ is an open source package to
# analyze microporous materials
#
#*******************************************

_cell_length_a		58.8445   
_cell_length_b		59.1429   
_cell_length_c		7   
_cell_angle_alpha		90   
_cell_angle_beta		90   
_cell_angle_gamma		119.78   

_symmetry_space_group_name_H-M		'P1'
_symmetry_Int_Tables_number		1
_symmetry_cell_setting		Monoclinic

loop_
_symmetry_equiv_pos_as_xyz
'+x,+y,+z'

loop_
_atom_site_label
_atom_site_type_symbol
_atom_site_fract_x
_atom_site_fract_y
_atom_site_fract_z
1	C	0.359676	0.672179	0.999995
2	O	0.382771	0.676233	0.999991
3	C	0.338786	0.645091	0.999998
4	C	0.342828	0.625124	0
5	N	0.36868	0.629793	0
6	C	0.312077	0.640283	3e-06
7	O	0.293303	0.616935	5e-06
8	C	0.305674	0.661115	6e-06
9	C	0.281095	0.656088	5e-06
10	N	0.260767	0.629524	0
11	C	0.327569	0.687987	4e-06
12	O	0.322481	0.706002	7e-06
13	C	0.354708	0.694003	0.999999
14	C	0.37401	0.718517	0.999998
15	N	0.370147	0.740279	0
16	H	0.326836	0.605687	1e-06
17	H	0.275919	0.67101	8e-06
18	H	0.39352	0.722018	0.999997
19	C	0.640324	0.327821	0.999995
20	O	0.617229	0.323767	0.999991
21	C	0.661214	0.354909	0.999998
22	C	0.657172	0.374876	0
23	N	0.63132	0.370207	0
24	C	0.687923	0.359717	3e-06
25	O	0.706697	0.383065	5e-06
26	C	0.694326	0.338885	6e-06
27	C	0.718905	0.343912	5e-06
28	N	0.739233	0.370476	0
29	C	0.672431	0.312013	4e-06
30	O	0.677519	0.293998	7e-06
31	C	0.645292	0.305997	0.999999
32	C	0.62599	0.281483	0.999998
33	N	0.629853	0.259721	0
34	H	0.673164	0.394313	1e-06
35	H	0.724081	0.32899	8e-06
36	H	0.60648	0.277982	0.999997
37	C	0.384448	0.614209	0
38	C	0.391165	0.607561	0.830426
39	S	0.407794	0.591117	0.867761
40	C	0.406059	0.592842	0.112993
41	C	0.417176	0.581853	0.243698
42	C	0.416607	0.582407	0.441095
43	C	0.429314	0.569848	0.528561
44	C	0.439516	0.559773	0.397503
45	C	0.453527	0.545926	0.439823
46	C	0.459286	0.540238	0.619358
47	C	0.473351	0.526337	0.613
48	C	0.478021	0.521718	0.428582
49	C	0.492945	0.506967	0.372993
50	C	0.503305	0.49673	0.499924
51	N	0.514755	0.485411	0.395937
52	C	0.511987	0.488144	0.203356
53	C	0.521992	0.478253	0.057835
54	C	0.520091	0.48013	0.862788
55	C	0.532193	0.468168	0.758917
56	C	0.543192	0.457299	0.87594
57	C	0.556875	0.443775	0.81517
58	C	0.561453	0.439247	0.629092
59	C	0.575496	0.425368	0.616867
60	C	0.581557	0.419382	0.793759
61	C	0.595558	0.405548	0.83616
62	C	0.601617	0.399562	0.013805
63	C	0.615552	0.385791	0
64	C	0.62004	0.381353	0.815529
65	S	0.607243	0.393998	0.656946
66	S	0.569907	0.4309	0.971577
67	S	0.53845	0.461988	0.111679
68	C	0.498397	0.501575	0.186442
69	S	0.465529	0.534062	0.266187
70	S	0.433299	0.565925	0.169529
71	C	0.392816	0.605939	0.162105
72	H	0.387232	0.611445	0.686877
73	H	0.407509	0.591393	0.522003
74	H	0.430743	0.568429	0.681843
75	H	0.453753	0.545709	0.751581
76	H	0.479585	0.520178	0.73847
77	H	0.503633	0.496407	0.65427
78	H	0.523972	0.476302	0.451023
79	H	0.510466	0.489642	0.795849
80	H	0.532635	0.467729	0.604376
81	H	0.555107	0.445515	0.504702
82	H	0.580773	0.42015	0.482331
83	H	0.596279	0.404839	0.147812
84	H	0.630117	0.371395	0.765334
85	H	0.49295	0.506956	0.053545
86	H	0.389296	0.609426	0.308071
87	C	0.385706	0.771448	0
88	C	0.392343	0.784735	0.830426
89	S	0.40876	0.817615	0.867761
90	C	0.407038	0.814175	0.112993
91	C	0.418009	0.836151	0.243698
92	C	0.417455	0.835035	0.441095
93	C	0.429994	0.860153	0.528561
94	C	0.440053	0.880312	0.397503
95	C	0.453877	0.908007	0.439823
96	C	0.459556	0.919387	0.619358
97	C	0.473434	0.947189	0.613
98	C	0.478045	0.956424	0.428582
99	C	0.492773	0.985926	0.372993
100	C	0.502993	0.006402	0.499924
101	N	0.514293	0.029038	0.395937
102	C	0.511565	0.02357	0.203356
103	C	0.521439	0.043349	0.057835
104	C	0.519565	0.039593	0.862788
105	C	0.531508	0.063516	0.758917
106	C	0.542359	0.085256	0.87594
107	C	0.555861	0.112303	0.81517
108	C	0.560382	0.121357	0.629092
109	C	0.574238	0.149116	0.616867
110	C	0.580214	0.161092	0.793759
111	C	0.594026	0.188764	0.83616
112	C	0.600002	0.20074	0.013805
113	C	0.61375	0.228283	0
114	C	0.618181	0.237157	0.815529
115	S	0.605557	0.211864	0.656946
116	S	0.568715	0.13806	0.971577
117	S	0.537678	0.07588	0.111679
118	C	0.498155	0.996706	0.186442
119	S	0.465722	0.931733	0.266187
120	S	0.43391	0.868015	0.169529
121	C	0.393962	0.787988	0.162105
122	H	0.388465	0.776963	0.686877
123	H	0.408484	0.817057	0.522003
124	H	0.43141	0.862985	0.681843
125	H	0.454094	0.908447	0.751581
126	H	0.479583	0.95951	0.73847
127	H	0.503315	0.00705	0.65427
128	H	0.523387	0.047257	0.451023
129	H	0.510069	0.020568	0.795849
130	H	0.531946	0.064392	0.604376
131	H	0.554123	0.108816	0.504702
132	H	0.579448	0.15955	0.482331
133	H	0.594734	0.190186	0.147812
134	H	0.628123	0.257076	0.765334
135	H	0.492783	0.985942	0.053545
136	H	0.39048	0.781022	0.308071
137	C	0.22944	0.613939	0
138	C	0.216086	0.607301	0.830426
139	S	0.183039	0.590865	0.867761
140	C	0.186496	0.592579	0.112993
141	C	0.164409	0.581592	0.243698
142	C	0.165531	0.582154	0.441095
143	C	0.140286	0.569595	0.528561
144	C	0.120024	0.559511	0.397503
145	C	0.09219	0.545663	0.439823
146	C	0.080752	0.539971	0.619358
147	C	0.052808	0.52607	0.613
148	C	0.043527	0.521454	0.428582
149	C	0.013875	0.506703	0.372993
150	C	0.993296	0.496464	0.499924
151	N	0.970545	0.485147	0.395937
152	C	0.976041	0.487883	0.203356
153	C	0.956162	0.477994	0.057835
154	C	0.959937	0.479873	0.862788
155	C	0.935892	0.467912	0.758917
156	C	0.914043	0.457041	0.87594
157	C	0.886858	0.443517	0.81517
158	C	0.877758	0.438992	0.629092
159	C	0.84986	0.425112	0.616867
160	C	0.837822	0.419121	0.793759
161	C	0.81001	0.405284	0.83616
162	C	0.797974	0.399295	0.013805
163	C	0.770291	0.385522	0
164	C	0.761372	0.381086	0.815529
165	S	0.786794	0.393734	0.656946
166	S	0.860971	0.430636	0.971577
167	S	0.923466	0.461728	0.111679
168	C	0.003041	0.501315	0.186442
169	S	0.068343	0.533801	0.266187
170	S	0.132384	0.565656	0.169529
171	C	0.212816	0.605669	0.162105
172	H	0.223896	0.611188	0.686877
173	H	0.1836	0.591146	0.522003
174	H	0.13744	0.568182	0.681843
175	H	0.091747	0.54544	0.751581
176	H	0.040426	0.519908	0.73847
177	H	0.992645	0.49614	0.65427
178	H	0.952234	0.476037	0.451023
179	H	0.979058	0.489386	0.795849
180	H	0.935012	0.467475	0.604376
181	H	0.890363	0.445265	0.504702
182	H	0.839372	0.419896	0.482331
183	H	0.808581	0.404571	0.147812
184	H	0.741353	0.371126	0.765334
185	H	0.01386	0.506698	0.053545
186	H	0.219817	0.609148	0.308071
