data_C102H48N12O6S12_2023-05-11_18:37:08
#******************************************
#
# CIF file created by Zeo++
# Zeo++ is an open source package to
# analyze microporous materials
#
#*******************************************

_cell_length_a		41.525   
_cell_length_b		41.8235   
_cell_length_c		7   
_cell_angle_alpha		90   
_cell_angle_beta		90   
_cell_angle_gamma		119.688   

_symmetry_space_group_name_H-M		'P1'
_symmetry_Int_Tables_number		1
_symmetry_cell_setting		Monoclinic

loop_
_symmetry_equiv_pos_as_xyz
'+x,+y,+z'

loop_
_atom_site_label
_atom_site_type_symbol
_atom_site_fract_x
_atom_site_fract_y
_atom_site_fract_z
1	C	0.370649	0.674455	0.999995
2	O	0.403366	0.680182	0.999991
3	C	0.341116	0.636184	0.999998
4	C	0.346896	0.607975	0
5	N	0.383519	0.614572	0
6	C	0.30328	0.629391	3e-06
7	O	0.276736	0.596405	5e-06
8	C	0.294151	0.658824	6e-06
9	C	0.259334	0.651721	5e-06
10	N	0.230597	0.614191	0
11	C	0.325108	0.696789	4e-06
12	O	0.317851	0.722241	7e-06
13	C	0.363551	0.705287	0.999999
14	C	0.39084	0.739922	0.999998
15	N	0.385308	0.770667	0
16	H	0.324285	0.580513	1e-06
17	H	0.251961	0.672803	8e-06
18	H	0.418478	0.744868	0.999997
19	C	0.629351	0.325545	0.999995
20	O	0.596634	0.319818	0.999991
21	C	0.658884	0.363816	0.999998
22	C	0.653104	0.392025	0
23	N	0.616481	0.385428	0
24	C	0.69672	0.370609	3e-06
25	O	0.723264	0.403595	5e-06
26	C	0.705849	0.341176	6e-06
27	C	0.740666	0.348279	5e-06
28	N	0.769403	0.385809	0
29	C	0.674892	0.303211	4e-06
30	O	0.682149	0.277759	7e-06
31	C	0.636449	0.294713	0.999999
32	C	0.60916	0.260078	0.999998
33	N	0.614692	0.229333	0
34	H	0.675715	0.419487	1e-06
35	H	0.748039	0.327197	8e-06
36	H	0.581522	0.255132	0.999997
37	C	0.594096	0.407447	0
38	C	0.559118	0.389449	0.076312
39	C	0.556827	0.407309	0.245456
40	C	0.590221	0.438051	0.28987
41	C	0.596506	0.463517	0.467993
42	C	0.63033	0.493572	0.512125
43	S	0.628614	0.515423	0.715561
44	C	0.582285	0.485205	0.744471
45	C	0.562456	0.489566	0.906535
46	C	0.544814	0.511217	0.895424
47	C	0.545357	0.530403	0.729513
48	C	0.528029	0.551498	0.725366
49	C	0.509465	0.554239	0.887038
50	C	0.491733	0.575861	0.889897
51	C	0.491458	0.597034	0.723802
52	C	0.465866	0.586129	0.57752
53	C	0.475301	0.614474	0.438983
54	C	0.451959	0.611049	0.255244
55	C	0.461401	0.638523	0.121226
56	C	0.43446	0.627697	0.971844
57	C	0.405904	0.592553	0
58	S	0.411203	0.572417	0.198302
59	C	0.507694	0.64595	0.485458
60	S	0.526356	0.641556	0.695266
61	C	0.473622	0.577309	0.054576
62	C	0.473669	0.557427	0.210423
63	N	0.490317	0.536819	0.212222
64	C	0.508329	0.53482	0.054883
65	C	0.525955	0.513404	0.059078
66	N	0.524862	0.494933	0.22053
67	C	0.541845	0.474662	0.22673
68	C	0.560839	0.471129	0.075133
69	C	0.568716	0.45872	0.603224
70	S	0.623859	0.444965	0.127198
71	H	0.536214	0.364868	0.015623
72	H	0.531754	0.39767	0.328979
73	H	0.656384	0.504009	0.43699
74	H	0.559577	0.529419	0.600881
75	H	0.529415	0.565951	0.59361
76	H	0.441724	0.558923	0.570748
77	H	0.486039	0.66532	0.128321
78	H	0.436202	0.645031	0.852827
79	H	0.521793	0.671782	0.40879
80	H	0.459888	0.593597	0.061449
81	H	0.460103	0.557507	0.342884
82	H	0.539635	0.461015	0.362063
83	H	0.574045	0.454433	0.088172
84	H	0.540099	0.437108	0.598375
85	C	0.591953	0.184917	0
86	C	0.610242	0.168182	0.076312
87	C	0.592324	0.148165	0.245456
88	C	0.561248	0.150668	0.28987
89	C	0.53564	0.131582	0.467993
90	C	0.505252	0.135194	0.512125
91	S	0.483323	0.111782	0.715561
92	C	0.513953	0.095955	0.744471
93	C	0.509699	0.071996	0.906535
94	C	0.488071	0.033019	0.895424
95	C	0.468803	0.01449	0.729513
96	C	0.447731	0.976376	0.725366
97	C	0.445096	0.955279	0.887038
98	C	0.423498	0.916242	0.889897
99	C	0.402241	0.894929	0.723802
100	C	0.41335	0.880436	0.57752
101	C	0.384832	0.861607	0.438983
102	C	0.388416	0.841907	0.255244
103	C	0.360772	0.823951	0.121226
104	C	0.37181	0.808044	0.971844
105	C	0.407275	0.814703	0
106	S	0.42746	0.839958	0.198302
107	C	0.353024	0.862389	0.485458
108	S	0.357319	0.885227	0.695266
109	C	0.422157	0.896877	0.054576
110	C	0.442119	0.91668	0.210423
111	N	0.462707	0.953638	0.212222
112	C	0.464601	0.973452	0.054883
113	C	0.485993	0.01218	0.059078
114	N	0.504546	0.029453	0.22053
115	C	0.524792	0.066406	0.22673
116	C	0.528221	0.088717	0.075133
117	C	0.540631	0.108845	0.603224
118	S	0.554096	0.177092	0.127198
119	H	0.635067	0.169939	0.015623
120	H	0.60216	0.132928	0.328979
121	H	0.49461	0.150611	0.43699
122	H	0.469702	0.029543	0.600881
123	H	0.433212	0.963387	0.59361
124	H	0.440817	0.883577	0.570748
125	H	0.333712	0.821708	0.128321
126	H	0.354395	0.792543	0.852827
127	H	0.327	0.850675	0.40879
128	H	0.405889	0.867097	0.061449
129	H	0.442124	0.903175	0.342884
130	H	0.538509	0.07778	0.362063
131	H	0.544902	0.118379	0.088172
132	H	0.562509	0.101996	0.598375
133	C	0.813376	0.407066	0
134	C	0.830063	0.441799	0.076312
135	C	0.850273	0.443955	0.245456
136	C	0.847955	0.41071	0.28987
137	C	0.867279	0.40433	0.467993
138	C	0.863842	0.370663	0.512125
139	S	0.887487	0.372225	0.715561
140	C	0.903186	0.41827	0.744471
141	C	0.927269	0.437868	0.906535
142	C	0.966539	0.455194	0.895424
143	C	0.985264	0.454537	0.729513
144	C	0.023664	0.471555	0.725366
145	C	0.044863	0.489912	0.887038
146	C	0.084194	0.507327	0.889897
147	C	0.105726	0.507466	0.723802
148	C	0.120208	0.532865	0.57752
149	C	0.139292	0.523349	0.438983
150	C	0.159049	0.546474	0.255244
151	C	0.177251	0.536956	0.121226
152	C	0.193154	0.563689	0.971844
153	C	0.186245	0.592173	0
154	S	0.160762	0.587054	0.198302
155	C	0.138706	0.49109	0.485458
156	S	0.115749	0.472646	0.695266
157	C	0.103645	0.525243	0.054576
158	C	0.083637	0.525322	0.210423
159	N	0.0464	0.508973	0.212222
160	C	0.026495	0.491158	0.054883
161	C	0.987476	0.473846	0.059078
162	N	0.970016	0.475043	0.22053
163	C	0.932787	0.458361	0.22673
164	C	0.910364	0.439584	0.075133
165	C	0.890077	0.431865	0.603224
166	S	0.82147	0.377373	0.127198
167	H	0.828143	0.464622	0.015623
168	H	0.865511	0.468832	0.328979
169	H	0.84843	0.34481	0.43699
170	H	0.970144	0.440467	0.600881
171	H	0.036797	0.470092	0.59361
172	H	0.116883	0.55693	0.570748
173	H	0.179673	0.512402	0.128321
174	H	0.208827	0.561856	0.852827
175	H	0.150631	0.476973	0.40879
176	H	0.133648	0.538735	0.061449
177	H	0.097197	0.538748	0.342884
178	H	0.921281	0.460634	0.362063
179	H	0.880477	0.426618	0.088172
180	H	0.896816	0.460325	0.598375
