data_C114H54N6O6S12_2023-05-13_00:51:19
#******************************************
#
# CIF file created by Zeo++
# Zeo++ is an open source package to
# analyze microporous materials
#
#*******************************************

_cell_length_a		54.2398   
_cell_length_b		54.5382   
_cell_length_c		7   
_cell_angle_alpha		90   
_cell_angle_beta		90   
_cell_angle_gamma		119.761   

_symmetry_space_group_name_H-M		'P1'
_symmetry_Int_Tables_number		1
_symmetry_cell_setting		Monoclinic

loop_
_symmetry_equiv_pos_as_xyz
'+x,+y,+z'

loop_
_atom_site_label
_atom_site_type_symbol
_atom_site_fract_x
_atom_site_fract_y
_atom_site_fract_z
1	C	0.36191	0.672643	0.999995
2	O	0.386964	0.677038	0.999991
3	C	0.339257	0.643274	0.999998
4	C	0.343651	0.621625	0
5	N	0.371696	0.626688	0
6	C	0.310283	0.638061	3e-06
7	O	0.289925	0.612747	5e-06
8	C	0.303328	0.660648	6e-06
9	C	0.276664	0.655197	5e-06
10	N	0.254622	0.626396	0
11	C	0.32707	0.689783	4e-06
12	O	0.321543	0.709315	7e-06
13	C	0.356511	0.696305	0.999999
14	C	0.377442	0.722885	0.999998
15	N	0.373242	0.746479	0
16	H	0.326309	0.600551	1e-06
17	H	0.271043	0.671375	8e-06
18	H	0.398607	0.72668	0.999997
19	C	0.63809	0.327357	0.999995
20	O	0.613036	0.322962	0.999991
21	C	0.660743	0.356726	0.999998
22	C	0.656349	0.378375	0
23	N	0.628304	0.373312	0
24	C	0.689717	0.361939	3e-06
25	O	0.710075	0.387253	5e-06
26	C	0.696672	0.339352	6e-06
27	C	0.723336	0.344803	5e-06
28	N	0.745378	0.373604	0
29	C	0.67293	0.310217	4e-06
30	O	0.678457	0.290685	7e-06
31	C	0.643489	0.303695	0.999999
32	C	0.622558	0.277115	0.999998
33	N	0.626758	0.253521	0
34	H	0.673691	0.399449	1e-06
35	H	0.728957	0.328625	8e-06
36	H	0.601393	0.27332	0.999997
37	C	0.388809	0.60979	0
38	C	0.403076	0.595702	0.045897
39	C	0.405173	0.593631	0.248243
40	C	0.420173	0.57882	0.351151
41	C	0.422137	0.576879	0.545761
42	C	0.43694	0.562262	0.596166
43	C	0.446055	0.553263	0.439672
44	C	0.461951	0.537567	0.435095
45	C	0.469791	0.529826	0.60656
46	C	0.484843	0.514965	0.609255
47	C	0.492527	0.507379	0.781239
48	C	0.507474	0.492621	0.781238
49	C	0.515156	0.485035	0.609255
50	C	0.530209	0.470174	0.606559
51	C	0.538049	0.462433	0.435094
52	C	0.553946	0.446737	0.439671
53	C	0.563063	0.437741	0.596165
54	C	0.577867	0.423125	0.54576
55	C	0.579829	0.421181	0.35115
56	C	0.594828	0.406371	0.248243
57	C	0.607684	0.393682	0.345365
58	S	0.622075	0.37947	0.193331
59	C	0.611191	0.39021	0
60	C	0.596923	0.404297	0.045898
61	S	0.56393	0.436873	0.232605
62	C	0.53021	0.470171	0.263651
63	C	0.515156	0.485034	0.261165
64	C	0.507472	0.492621	0.089213
65	C	0.492526	0.507378	0.089214
66	C	0.484842	0.514965	0.261166
67	C	0.469789	0.529828	0.263653
68	C	0.492415	0.507489	0.43522
69	C	0.507584	0.492511	0.43522
70	S	0.436068	0.563125	0.232606
71	C	0.39232	0.606322	0.345365
72	S	0.377928	0.620533	0.193331
73	H	0.411556	0.587329	0.940565
74	H	0.413563	0.585345	0.649621
75	H	0.440548	0.558699	0.743087
76	H	0.464226	0.535322	0.742885
77	H	0.486932	0.512903	0.917519
78	H	0.513068	0.487097	0.917518
79	H	0.535774	0.464678	0.742885
80	H	0.559458	0.441306	0.743086
81	H	0.586443	0.414661	0.64962
82	H	0.60954	0.391854	0.497714
83	H	0.588441	0.412668	0.940566
84	H	0.535729	0.464722	0.126883
85	H	0.51307	0.487093	0.952932
86	H	0.486928	0.512905	0.952934
87	H	0.46427	0.535277	0.126884
88	H	0.390466	0.608152	0.497714
89	C	0.390109	0.780273	0
90	C	0.404172	0.80845	0.045897
91	C	0.40624	0.812592	0.248243
92	C	0.421024	0.842213	0.351151
93	C	0.422962	0.846093	0.545761
94	C	0.437553	0.875327	0.596166
95	C	0.446536	0.893325	0.439672
96	C	0.462204	0.924717	0.435095
97	C	0.469931	0.9402	0.60656
98	C	0.484766	0.969923	0.609255
99	C	0.492339	0.985096	0.781239
100	C	0.507071	0.014613	0.781238
101	C	0.514643	0.029785	0.609255
102	C	0.529478	0.059509	0.606559
103	C	0.537206	0.074991	0.435094
104	C	0.552873	0.106383	0.439671
105	C	0.561853	0.124382	0.596165
106	C	0.576443	0.153615	0.54576
107	C	0.578383	0.157496	0.35115
108	C	0.593168	0.187117	0.248243
109	C	0.605834	0.212499	0.345365
110	S	0.620021	0.240921	0.193331
111	C	0.6093	0.219435	0
112	C	0.595238	0.191259	0.045898
113	S	0.56272	0.126106	0.232605
114	C	0.529481	0.059513	0.263651
115	C	0.514644	0.029785	0.261165
116	C	0.507071	0.014612	0.089213
117	C	0.49234	0.985097	0.089214
118	C	0.484767	0.969923	0.261166
119	C	0.46993	0.940196	0.263653
120	C	0.49223	0.984876	0.43522
121	C	0.507181	0.014832	0.43522
122	S	0.436692	0.873603	0.232606
123	C	0.393572	0.787209	0.345365
124	S	0.379385	0.758787	0.193331
125	H	0.41253	0.825196	0.940565
126	H	0.414511	0.829161	0.649621
127	H	0.441109	0.882451	0.743087
128	H	0.464445	0.929208	0.742885
129	H	0.486825	0.974048	0.917519
130	H	0.512585	0.02566	0.917518
131	H	0.534964	0.0705	0.742885
132	H	0.558294	0.117257	0.743086
133	H	0.584892	0.170547	0.64962
134	H	0.607659	0.216161	0.497714
135	H	0.586882	0.174513	0.940566
136	H	0.53492	0.070411	0.126883
137	H	0.512589	0.025666	0.952932
138	H	0.486823	0.974042	0.952934
139	H	0.464491	0.929297	0.126884
140	H	0.391744	0.783548	0.497714
141	C	0.220641	0.609498	0
142	C	0.19231	0.59541	0.045897
143	C	0.188145	0.59334	0.248243
144	C	0.158362	0.57853	0.351151
145	C	0.15446	0.57659	0.545761
146	C	0.125066	0.561973	0.596166
147	C	0.106969	0.552974	0.439672
148	C	0.075404	0.537278	0.435095
149	C	0.059836	0.529536	0.60656
150	C	0.029949	0.514674	0.609255
151	C	0.014694	0.507087	0.781239
152	C	0.985015	0.492329	0.781238
153	C	0.969759	0.484742	0.609255
154	C	0.939872	0.46988	0.606559
155	C	0.924305	0.462139	0.435094
156	C	0.89274	0.446442	0.439671
157	C	0.874643	0.437439	0.596165
158	C	0.845249	0.422822	0.54576
159	C	0.841347	0.420885	0.35115
160	C	0.811563	0.406075	0.248243
161	C	0.786041	0.393381	0.345365
162	S	0.757463	0.379171	0.193331
163	C	0.779067	0.389918	0
164	C	0.807398	0.404007	0.045898
165	S	0.872909	0.436583	0.232605
166	C	0.939868	0.469878	0.263651
167	C	0.969759	0.484743	0.261165
168	C	0.985016	0.49233	0.089213
169	C	0.014693	0.507088	0.089214
170	C	0.02995	0.514675	0.261166
171	C	0.05984	0.529539	0.263653
172	C	0.014915	0.507198	0.43522
173	C	0.984794	0.492219	0.43522
174	S	0.126799	0.562834	0.232606
175	C	0.213667	0.606031	0.345365
176	S	0.242245	0.620242	0.193331
177	H	0.175472	0.587037	0.940565
178	H	0.171485	0.585056	0.649621
179	H	0.117902	0.558411	0.743087
180	H	0.070888	0.535031	0.742885
181	H	0.025802	0.512611	0.917519
182	H	0.973906	0.486804	0.917518
183	H	0.92882	0.464384	0.742885
184	H	0.881807	0.440999	0.743086
185	H	0.828224	0.414354	0.64962
186	H	0.78236	0.391548	0.497714
187	H	0.824236	0.412382	0.940566
188	H	0.92891	0.464429	0.126883
189	H	0.973901	0.486803	0.952932
190	H	0.025808	0.512616	0.952934
191	H	0.070799	0.534988	0.126884
192	H	0.217349	0.607862	0.497714
