data_C57H27N9O6S6_2023-05-29_18:53:06
#******************************************
#
# CIF file created by Zeo++
# Zeo++ is an open source package to
# analyze microporous materials
#
#*******************************************

_cell_length_a		36.5577   
_cell_length_b		36.8563   
_cell_length_c		7   
_cell_angle_alpha		90   
_cell_angle_beta		90   
_cell_angle_gamma		119.646   

_symmetry_space_group_name_H-M		'P1'
_symmetry_Int_Tables_number		1
_symmetry_cell_setting		Monoclinic

loop_
_symmetry_equiv_pos_as_xyz
'+x,+y,+z'

loop_
_atom_site_label
_atom_site_type_symbol
_atom_site_fract_x
_atom_site_fract_y
_atom_site_fract_z
1	C	0.375712	0.675501	0.999995
2	O	0.412869	0.681997	0.999991
3	C	0.342203	0.63209	0.999998
4	C	0.348795	0.600093	0
5	N	0.390388	0.607575	0
6	C	0.299232	0.624385	3e-06
7	O	0.269114	0.58697	5e-06
8	C	0.288835	0.65777	6e-06
9	C	0.249294	0.649714	5e-06
10	N	0.216689	0.607144	0
11	C	0.323961	0.700834	4e-06
12	O	0.315693	0.729704	7e-06
13	C	0.36762	0.710474	0.999999
14	C	0.398582	0.74976	0.999998
15	N	0.392269	0.784634	0
16	H	0.323139	0.568943	1e-06
17	H	0.240899	0.673627	8e-06
18	H	0.429972	0.75537	0.999997
19	C	0.624288	0.324499	0.999995
20	O	0.587131	0.318003	0.999991
21	C	0.657797	0.36791	0.999998
22	C	0.651205	0.399907	0
23	N	0.609612	0.392425	0
24	C	0.700768	0.375615	3e-06
25	O	0.730886	0.41303	5e-06
26	C	0.711165	0.34223	6e-06
27	C	0.750706	0.350286	5e-06
28	N	0.783311	0.392856	0
29	C	0.676039	0.299166	4e-06
30	O	0.684307	0.270296	7e-06
31	C	0.63238	0.289526	0.999999
32	C	0.601418	0.25024	0.999998
33	N	0.607731	0.215366	0
34	H	0.676861	0.431057	1e-06
35	H	0.759101	0.326373	8e-06
36	H	0.570028	0.24463	0.999997
37	C	0.415836	0.5826	0
38	C	0.42171	0.576844	0.811828
39	C	0.444333	0.554642	0.792789
40	C	0.454989	0.544177	0.966828
41	C	0.478149	0.521445	0.004589
42	C	0.492838	0.507034	0.8554
43	N	0.514322	0.485949	0.875922
44	C	0.522326	0.478089	0.055061
45	C	0.545725	0.455124	0.071823
46	C	0.5584	0.442684	0.234469
47	C	0.580647	0.420852	0.192974
48	C	0.584164	0.4174	0
49	S	0.561546	0.439597	0.869861
50	C	0.50907	0.491093	0.213949
51	C	0.486984	0.512769	0.188019
52	S	0.43673	0.562088	0.151393
53	H	0.410647	0.587707	0.693254
54	H	0.452203	0.546924	0.655127
55	H	0.487865	0.51192	0.706812
56	H	0.552179	0.448791	0.378689
57	H	0.59312	0.408611	0.299653
58	H	0.515395	0.484881	0.358
59	H	0.477054	0.522511	0.315102
60	C	0.417179	0.834584	0
61	C	0.42292	0.846106	0.811828
62	C	0.445063	0.89051	0.792789
63	C	0.455501	0.911433	0.966828
64	C	0.478172	0.956895	0.004589
65	C	0.492546	0.985722	0.8554
66	N	0.513575	0.027892	0.875922
67	C	0.521415	0.043607	0.055061
68	C	0.544319	0.089536	0.071823
69	C	0.556726	0.114415	0.234469
70	C	0.578501	0.158081	0.192974
71	C	0.581944	0.164985	0
72	S	0.559805	0.12059	0.869861
73	C	0.508445	0.017594	0.213949
74	C	0.486826	0.974242	0.188019
75	S	0.437637	0.875602	0.151393
76	H	0.412086	0.824385	0.693254
77	H	0.45276	0.905951	0.655127
78	H	0.487673	0.975955	0.706812
79	H	0.550636	0.102203	0.378689
80	H	0.590709	0.182563	0.299653
81	H	0.514641	0.030013	0.358
82	H	0.47711	0.954754	0.315102
83	C	0.166331	0.582168	0
84	C	0.154716	0.576404	0.811828
85	C	0.10995	0.5542	0.792789
86	C	0.088856	0.543743	0.966828
87	C	0.043024	0.521013	0.004589
88	C	0.013962	0.506597	0.8554
89	N	0.971448	0.485512	0.875922
90	C	0.955606	0.477658	0.055061
91	C	0.909302	0.454693	0.071823
92	C	0.88422	0.442253	0.234469
93	C	0.840199	0.42042	0.192974
94	C	0.833238	0.416968	0
95	S	0.877995	0.439166	0.869861
96	C	0.981831	0.490667	0.213949
97	C	0.025536	0.512342	0.188019
98	S	0.124979	0.561663	0.151393
99	H	0.176614	0.587261	0.693254
100	H	0.094383	0.546477	0.655127
101	H	0.023808	0.511478	0.706812
102	H	0.896532	0.448359	0.378689
103	H	0.815517	0.408179	0.299653
104	H	0.96931	0.484459	0.358
105	H	0.045183	0.522088	0.315102
