data_C78H36N12O6S12_2023-05-15_08:24:56
#******************************************
#
# CIF file created by Zeo++
# Zeo++ is an open source package to
# analyze microporous materials
#
#*******************************************

_cell_length_a		47.2943   
_cell_length_b		47.5928   
_cell_length_c		7   
_cell_angle_alpha		90   
_cell_angle_beta		90   
_cell_angle_gamma		119.726   

_symmetry_space_group_name_H-M		'P1'
_symmetry_Int_Tables_number		1
_symmetry_cell_setting		Monoclinic

loop_
_symmetry_equiv_pos_as_xyz
'+x,+y,+z'

loop_
_atom_site_label
_atom_site_type_symbol
_atom_site_fract_x
_atom_site_fract_y
_atom_site_fract_z
1	C	0.366102	0.673513	0.999995
2	O	0.394832	0.678548	0.999991
3	C	0.340146	0.639869	0.999998
4	C	0.345202	0.61507	0
5	N	0.377362	0.620869	0
6	C	0.306921	0.633897	3e-06
7	O	0.283593	0.604899	5e-06
8	C	0.298926	0.659772	6e-06
9	C	0.268351	0.653528	5e-06
10	N	0.243095	0.620535	0
11	C	0.326132	0.693147	4e-06
12	O	0.319777	0.715522	7e-06
13	C	0.359891	0.700618	0.999999
14	C	0.383874	0.731066	0.999998
15	N	0.379038	0.758094	0
16	H	0.325331	0.590929	1e-06
17	H	0.261892	0.672061	8e-06
18	H	0.408144	0.735414	0.999997
19	C	0.633898	0.326487	0.999995
20	O	0.605168	0.321452	0.999991
21	C	0.659854	0.360131	0.999998
22	C	0.654798	0.38493	0
23	N	0.622638	0.379131	0
24	C	0.693079	0.366103	3e-06
25	O	0.716407	0.395101	5e-06
26	C	0.701074	0.340228	6e-06
27	C	0.731649	0.346472	5e-06
28	N	0.756905	0.379465	0
29	C	0.673868	0.306853	4e-06
30	O	0.680223	0.284478	7e-06
31	C	0.640109	0.299382	0.999999
32	C	0.616126	0.268934	0.999998
33	N	0.620962	0.241906	0
34	H	0.674669	0.409071	1e-06
35	H	0.738108	0.327939	8e-06
36	H	0.591856	0.264586	0.999997
37	C	0.602999	0.398487	0
38	C	0.608764	0.3928	0.183674
39	C	0.595541	0.405828	0.317709
40	C	0.580189	0.420961	0.231591
41	C	0.564387	0.436534	0.327544
42	C	0.561694	0.439182	0.522651
43	C	0.544702	0.455928	0.571298
44	C	0.534503	0.465985	0.413283
45	C	0.516452	0.483778	0.409671
46	C	0.506854	0.493243	0.245319
47	N	0.49016	0.509698	0.248234
48	C	0.482965	0.516785	0.422712
49	C	0.464888	0.534603	0.428194
50	C	0.454422	0.544921	0.583932
51	C	0.437496	0.561604	0.531093
52	C	0.435107	0.563957	0.335507
53	C	0.419453	0.579387	0.236292
54	C	0.403973	0.594654	0.319202
55	C	0.390958	0.607479	0.182448
56	C	0.397001	0.601513	0
57	S	0.417716	0.581089	0.990702
58	S	0.453684	0.545646	0.220091
59	C	0.492584	0.5073	0.586929
60	N	0.509276	0.490847	0.584791
61	S	0.545979	0.454682	0.208053
62	S	0.582296	0.418892	0.986402
63	H	0.621644	0.380103	0.221853
64	H	0.597385	0.404006	0.470927
65	H	0.571393	0.429618	0.628373
66	H	0.540091	0.460468	0.716638
67	H	0.512107	0.488069	0.102996
68	H	0.458483	0.540918	0.731234
69	H	0.4276	0.571358	0.634371
70	H	0.401891	0.596713	0.471978
71	H	0.378023	0.620234	0.217906
72	H	0.487257	0.512548	0.728797
73	C	0.600968	0.202859	0
74	C	0.606643	0.214228	0.183674
75	C	0.593642	0.188168	0.317709
76	C	0.578539	0.157904	0.231591
77	C	0.562998	0.126757	0.327544
78	C	0.560356	0.121455	0.522651
79	C	0.543644	0.087963	0.571298
80	C	0.533607	0.067853	0.413283
81	C	0.515851	0.03227	0.409671
82	C	0.506404	0.013345	0.245319
83	N	0.489983	0.980437	0.248234
84	C	0.48291	0.966259	0.422712
85	C	0.465129	0.930625	0.428194
86	C	0.454832	0.909992	0.583932
87	C	0.438183	0.876627	0.531093
88	C	0.435834	0.871919	0.335507
89	C	0.420435	0.84106	0.236292
90	C	0.4052	0.810537	0.319202
91	C	0.392401	0.784885	0.182448
92	C	0.398355	0.796807	0
93	S	0.418737	0.837647	0.990702
94	S	0.454108	0.908539	0.220091
95	C	0.492376	0.985225	0.586929
96	N	0.508796	0.018129	0.584791
97	S	0.544888	0.090467	0.208053
98	S	0.580604	0.16205	0.986402
99	H	0.619314	0.23962	0.221853
100	H	0.59546	0.191807	0.470927
101	H	0.569901	0.140579	0.628373
102	H	0.539113	0.078877	0.716638
103	H	0.511568	0.023696	0.102996
104	H	0.458826	0.917997	0.731234
105	H	0.428448	0.857119	0.634371
106	H	0.403145	0.806426	0.471978
107	H	0.379672	0.759382	0.217906
108	H	0.487139	0.974725	0.728797
109	C	0.795528	0.398153	0
110	C	0.784087	0.392471	0.183674
111	C	0.810312	0.405503	0.317709
112	C	0.840766	0.420633	0.231591
113	C	0.87211	0.436207	0.327544
114	C	0.877445	0.438862	0.522651
115	C	0.911148	0.455608	0.571298
116	C	0.931384	0.46566	0.413283
117	C	0.967191	0.48345	0.409671
118	C	0.986236	0.49291	0.245319
119	N	0.019352	0.509364	0.248234
120	C	0.033619	0.516455	0.422712
121	C	0.069477	0.534271	0.428194
122	C	0.09024	0.544586	0.583932
123	C	0.123816	0.561268	0.531093
124	C	0.128553	0.563622	0.335507
125	C	0.159606	0.579051	0.236292
126	C	0.190322	0.594308	0.319202
127	C	0.216135	0.607134	0.182448
128	C	0.204138	0.601178	0
129	S	0.163041	0.580763	0.990702
130	S	0.091703	0.545313	0.220091
131	C	0.014534	0.506974	0.586929
132	N	0.981422	0.490523	0.584791
133	S	0.908628	0.45435	0.208053
134	S	0.836594	0.418557	0.986402
135	H	0.758536	0.379776	0.221853
136	H	0.806649	0.403685	0.470927
137	H	0.858201	0.429302	0.628373
138	H	0.920291	0.460153	0.716638
139	H	0.97582	0.487733	0.102996
140	H	0.082185	0.540584	0.731234
141	H	0.143446	0.571021	0.634371
142	H	0.194459	0.59636	0.471978
143	H	0.2418	0.619883	0.217906
144	H	0.025099	0.512225	0.728797
