data_C84H42N6O6S12_2023-05-14_00:06:58
#******************************************
#
# CIF file created by Zeo++
# Zeo++ is an open source package to
# analyze microporous materials
#
#*******************************************

_cell_length_a		49.2677   
_cell_length_b		49.5662   
_cell_length_c		7   
_cell_angle_alpha		90   
_cell_angle_beta		90   
_cell_angle_gamma		119.737   

_symmetry_space_group_name_H-M		'P1'
_symmetry_Int_Tables_number		1
_symmetry_cell_setting		Monoclinic

loop_
_symmetry_equiv_pos_as_xyz
'+x,+y,+z'

loop_
_atom_site_label
_atom_site_type_symbol
_atom_site_fract_x
_atom_site_fract_y
_atom_site_fract_z
1	C	0.364791	0.673241	0.999995
2	O	0.392371	0.678076	0.999991
3	C	0.339868	0.640933	0.999998
4	C	0.344716	0.617119	0
5	N	0.375589	0.622688	0
6	C	0.307972	0.635199	3e-06
7	O	0.285573	0.607352	5e-06
8	C	0.300303	0.660045	6e-06
9	C	0.270951	0.654049	5e-06
10	N	0.246699	0.622367	0
11	C	0.326426	0.692096	4e-06
12	O	0.32033	0.713582	7e-06
13	C	0.358835	0.69927	0.999999
14	C	0.381863	0.728509	0.999998
15	N	0.377227	0.754464	0
16	H	0.325636	0.593936	1e-06
17	H	0.264755	0.671847	8e-06
18	H	0.405162	0.732684	0.999997
19	C	0.635209	0.326759	0.999995
20	O	0.607629	0.321924	0.999991
21	C	0.660132	0.359067	0.999998
22	C	0.655284	0.382881	0
23	N	0.624411	0.377312	0
24	C	0.692028	0.364801	3e-06
25	O	0.714427	0.392648	5e-06
26	C	0.699697	0.339955	6e-06
27	C	0.729049	0.345951	5e-06
28	N	0.753301	0.377633	0
29	C	0.673574	0.307904	4e-06
30	O	0.67967	0.286418	7e-06
31	C	0.641165	0.30073	0.999999
32	C	0.618137	0.271491	0.999998
33	N	0.622773	0.245536	0
34	H	0.674364	0.406064	1e-06
35	H	0.735245	0.328153	8e-06
36	H	0.594838	0.267316	0.999997
37	C	0.605562	0.3959	0
38	C	0.590987	0.410274	0.915152
39	C	0.578664	0.422426	0.054343
40	C	0.560479	0.440359	0.008338
41	C	0.554309	0.446445	0.826763
42	C	0.537486	0.463035	0.828167
43	C	0.531065	0.469366	0.010464
44	C	0.51425	0.485948	0.068691
45	C	0.502289	0.497743	0.930609
46	C	0.486267	0.513543	0.981367
47	C	0.481437	0.518306	0.172834
48	C	0.464622	0.534888	0.231058
49	C	0.458202	0.54122	0.413353
50	C	0.441377	0.557811	0.414806
51	C	0.435207	0.563896	0.23322
52	C	0.417072	0.581779	0.184574
53	C	0.405414	0.593276	0.32212
54	S	0.386897	0.611537	0.223903
55	C	0.394438	0.6041	0
56	C	0.410599	0.588163	0.995983
57	S	0.449659	0.549644	0.064584
58	C	0.493399	0.506511	0.310916
59	C	0.509421	0.49071	0.260158
60	S	0.546029	0.454609	0.176935
61	C	0.584586	0.416585	0.238098
62	S	0.604789	0.396662	0.241657
63	H	0.589267	0.41197	0.761995
64	H	0.561282	0.439568	0.697334
65	H	0.530546	0.469879	0.698431
66	H	0.505072	0.494998	0.779072
67	H	0.477743	0.521948	0.865425
68	H	0.465142	0.534375	0.543083
69	H	0.434418	0.564673	0.544351
70	H	0.40663	0.592076	0.475765
71	H	0.417426	0.58143	0.865338
72	H	0.490616	0.509256	0.462452
73	H	0.517944	0.482306	0.3761
74	H	0.578197	0.422886	0.371711
75	C	0.603572	0.20804	0
76	C	0.589226	0.179292	0.915152
77	C	0.577097	0.154988	0.054343
78	C	0.5592	0.119122	0.008338
79	C	0.553126	0.106951	0.826763
80	C	0.536568	0.073771	0.828167
81	C	0.530249	0.061109	0.010464
82	C	0.5137	0.027945	0.068691
83	C	0.501927	0.004353	0.930609
84	C	0.486158	0.972753	0.981367
85	C	0.481404	0.963228	0.172834
86	C	0.464855	0.930064	0.231058
87	C	0.458536	0.917401	0.413353
88	C	0.441976	0.884217	0.414806
89	C	0.435904	0.872049	0.23322
90	C	0.418055	0.836281	0.184574
91	C	0.406581	0.813288	0.32212
92	S	0.388356	0.776766	0.223903
93	C	0.395778	0.79164	0
94	C	0.411684	0.823514	0.995983
95	S	0.450128	0.900552	0.064584
96	C	0.493177	0.986819	0.310916
97	C	0.508946	0.01842	0.260158
98	S	0.544977	0.090622	0.176935
99	C	0.582927	0.166669	0.238098
100	S	0.602811	0.206514	0.241657
101	H	0.587532	0.175899	0.761995
102	H	0.559989	0.120705	0.697334
103	H	0.529737	0.060084	0.698431
104	H	0.504667	0.009843	0.779072
105	H	0.47777	0.955943	0.865425
106	H	0.465367	0.93109	0.543083
107	H	0.435128	0.870493	0.544351
108	H	0.407778	0.815687	0.475765
109	H	0.418404	0.83698	0.865338
110	H	0.490437	0.98133	0.462452
111	H	0.517334	0.03523	0.3761
112	H	0.576638	0.154067	0.371711
113	C	0.790381	0.395579	0
114	C	0.819302	0.409952	0.915152
115	C	0.843754	0.422105	0.054343
116	C	0.879836	0.440037	0.008338
117	C	0.89208	0.446123	0.826763
118	C	0.925461	0.462712	0.828167
119	C	0.9382	0.469044	0.010464
120	C	0.971564	0.485626	0.068691
121	C	0.995299	0.497422	0.930609
122	C	0.02709	0.513222	0.981367
123	C	0.036673	0.517984	0.172834
124	C	0.070038	0.534566	0.231058
125	C	0.082777	0.540898	0.413353
126	C	0.116162	0.55749	0.414806
127	C	0.128403	0.563574	0.23322
128	C	0.164387	0.581458	0.184574
129	C	0.18752	0.592955	0.32212
130	S	0.224262	0.611215	0.223903
131	C	0.209299	0.603779	0
132	C	0.177232	0.587841	0.995983
133	S	0.099727	0.549322	0.064584
134	C	0.012939	0.506188	0.310916
135	C	0.981147	0.490388	0.260158
136	S	0.908509	0.454288	0.176935
137	C	0.832001	0.416264	0.238098
138	S	0.791915	0.396342	0.241657
139	H	0.822715	0.411649	0.761995
140	H	0.878243	0.439245	0.697334
141	H	0.939231	0.469556	0.698431
142	H	0.989776	0.494677	0.779072
143	H	0.044002	0.521627	0.865425
144	H	0.069005	0.534054	0.543083
145	H	0.129969	0.564352	0.544351
146	H	0.185106	0.591755	0.475765
147	H	0.163684	0.581108	0.865338
148	H	0.018462	0.508933	0.462452
149	H	0.964236	0.481983	0.3761
150	H	0.84468	0.422565	0.371711
