data_C96H48N6O6S18_2023-05-13_00:02:53
#******************************************
#
# CIF file created by Zeo++
# Zeo++ is an open source package to
# analyze microporous materials
#
#*******************************************

_cell_length_a		39.2928   
_cell_length_b		39.5914   
_cell_length_c		7   
_cell_angle_alpha		90   
_cell_angle_beta		90   
_cell_angle_gamma		119.671   

_symmetry_space_group_name_H-M		'P1'
_symmetry_Int_Tables_number		1
_symmetry_cell_setting		Monoclinic

loop_
_symmetry_equiv_pos_as_xyz
'+x,+y,+z'

loop_
_atom_site_label
_atom_site_type_symbol
_atom_site_fract_x
_atom_site_fract_y
_atom_site_fract_z
1	C	0.372766	0.674892	0.999995
2	O	0.407339	0.680941	0.999991
3	C	0.34157	0.634471	0.999998
4	C	0.347688	0.604677	0
5	N	0.386389	0.611644	0
6	C	0.301587	0.627296	3e-06
7	O	0.273548	0.592457	5e-06
8	C	0.291928	0.658383	6e-06
9	C	0.255136	0.650881	5e-06
10	N	0.224781	0.611242	0
11	C	0.324629	0.698481	4e-06
12	O	0.31695	0.725364	7e-06
13	C	0.365253	0.707458	0.999999
14	C	0.394079	0.744039	0.999998
15	N	0.388222	0.776511	0
16	H	0.323804	0.575672	1e-06
17	H	0.247336	0.673147	8e-06
18	H	0.423286	0.749262	0.999997
19	C	0.627234	0.325108	0.999995
20	O	0.592661	0.319059	0.999991
21	C	0.65843	0.365529	0.999998
22	C	0.652312	0.395323	0
23	N	0.613611	0.388356	0
24	C	0.698413	0.372704	3e-06
25	O	0.726452	0.407543	5e-06
26	C	0.708072	0.341617	6e-06
27	C	0.744864	0.349119	5e-06
28	N	0.775219	0.388758	0
29	C	0.675371	0.301519	4e-06
30	O	0.68305	0.274636	7e-06
31	C	0.634747	0.292542	0.999999
32	C	0.605921	0.255961	0.999998
33	N	0.611778	0.223489	0
34	H	0.676196	0.424328	1e-06
35	H	0.752664	0.326853	8e-06
36	H	0.576714	0.250738	0.999997
37	C	0.589945	0.411612	0
38	C	0.565979	0.41026	0.145959
39	C	0.58619	0.442124	0.274846
40	C	0.567786	0.449804	0.458542
41	C	0.529775	0.426239	0.517669
42	C	0.521129	0.440225	0.688574
43	C	0.552653	0.474299	0.755193
44	C	0.554383	0.496624	0.922466
45	C	0.581336	0.534922	0.963326
46	C	0.573843	0.547713	0.140733
47	C	0.540868	0.519289	0.231588
48	C	0.52489	0.52188	0.409777
49	C	0.48922	0.517991	0.435426
50	C	0.461348	0.511211	0.28912
51	C	0.423005	0.481315	0.278133
52	C	0.403192	0.483615	0.112167
53	C	0.426581	0.515489	0.999627
54	C	0.415596	0.526165	0.822247
55	C	0.378797	0.519839	0.773186
56	C	0.377708	0.533906	0.586665
57	C	0.413613	0.550133	0.497318
58	C	0.421928	0.568346	0.290691
59	C	0.45817	0.584133	0.203486
60	S	0.458101	0.601954	0.980495
61	C	0.410055	0.588388	0
62	C	0.393777	0.570801	0.170844
63	S	0.44805	0.548226	0.63819
64	S	0.471724	0.54305	0.102258
65	S	0.520883	0.476607	0.104483
66	S	0.592483	0.488436	0.608208
67	C	0.624584	0.466071	0.219392
68	S	0.635888	0.450065	0.014088
69	H	0.535693	0.387678	0.159596
70	H	0.508694	0.400085	0.444298
71	H	0.492699	0.425819	0.757456
72	H	0.605458	0.553473	0.870217
73	H	0.591496	0.576835	0.196919
74	H	0.543656	0.527985	0.534086
75	H	0.480194	0.519463	0.580658
76	H	0.409863	0.458244	0.383064
77	H	0.373249	0.462403	0.076723
78	H	0.353673	0.506191	0.867412
79	H	0.35161	0.531932	0.523891
80	H	0.484944	0.586347	0.25827
81	H	0.363436	0.560344	0.207751
82	H	0.646867	0.492175	0.288023
83	C	0.587764	0.176576	0
84	C	0.58928	0.154212	0.145959
85	C	0.557145	0.142551	0.274846
86	C	0.549554	0.116716	0.458542
87	C	0.573472	0.102526	0.517669
88	C	0.559483	0.08008	0.688574
89	C	0.525055	0.077414	0.755193
90	C	0.502622	0.056948	0.922466
91	C	0.463983	0.045566	0.963326
92	C	0.451186	0.025447	0.140733
93	C	0.47995	0.021064	0.231588
94	C	0.477453	0.002685	0.409777
95	C	0.481595	0.971264	0.435426
96	C	0.488589	0.950428	0.28912
97	C	0.518867	0.942198	0.278133
98	C	0.516688	0.920314	0.112167
99	C	0.484522	0.911788	0.999627
100	C	0.473874	0.890317	0.822247
101	C	0.48047	0.860199	0.773186
102	C	0.46635	0.845147	0.586665
103	C	0.449816	0.864545	0.497318
104	C	0.43147	0.854677	0.290691
105	C	0.415376	0.874845	0.203486
106	S	0.397479	0.857075	0.980495
107	C	0.41142	0.823022	0
108	C	0.429191	0.824392	0.170844
109	S	0.451503	0.900504	0.63819
110	S	0.456545	0.929064	0.102258
111	S	0.522947	0.043694	0.104483
112	S	0.510594	0.102771	0.608208
113	C	0.532842	0.156741	0.219392
114	S	0.548842	0.183823	0.014088
115	H	0.612159	0.146685	0.159596
116	H	0.599877	0.107653	0.444298
117	H	0.574139	0.066268	0.757456
118	H	0.445192	0.050998	0.870217
119	H	0.421823	0.01398	0.196919
120	H	0.471199	0.015184	0.534086
121	H	0.480177	0.960873	0.580658
122	H	0.542123	0.952116	0.383064
123	H	0.538189	0.911767	0.076723
124	H	0.494343	0.848904	0.867412
125	H	0.468505	0.821293	0.523891
126	H	0.412975	0.89913	0.25827
127	H	0.439893	0.804766	0.207751
128	H	0.506478	0.152851	0.288023
129	C	0.821682	0.41121	0
130	C	0.844133	0.434926	0.145959
131	C	0.856056	0.414722	0.274846
132	C	0.882052	0.432877	0.458542
133	C	0.896145	0.470633	0.517669
134	C	0.918779	0.479093	0.688574
135	C	0.921685	0.447685	0.755193
136	C	0.942386	0.445825	0.922466
137	C	0.954073	0.41891	0.963326
138	C	0.974363	0.426238	0.140733
139	C	0.978574	0.459045	0.231588
140	C	0.997049	0.474833	0.409777
141	C	0.028577	0.510143	0.435426
142	C	0.049455	0.537758	0.28912
143	C	0.05752	0.575884	0.278133
144	C	0.079512	0.595468	0.112167
145	C	0.088288	0.572121	0.999627
146	C	0.109921	0.582916	0.822247
147	C	0.140125	0.61936	0.773186
148	C	0.155334	0.620344	0.586665
149	C	0.135963	0.58472	0.497318
150	C	0.145994	0.576374	0.290691
151	C	0.125846	0.540419	0.203486
152	S	0.143811	0.540369	0.980495
153	C	0.177917	0.587987	0
154	C	0.176424	0.604205	0.170844
155	S	0.099839	0.550667	0.63819
156	S	0.071122	0.527283	0.102258
157	S	0.955562	0.479096	0.104483
158	S	0.896315	0.408191	0.608208
159	C	0.841966	0.376585	0.219392
160	S	0.814662	0.365509	0.014088
161	H	0.85154	0.465034	0.159596
162	H	0.890821	0.491659	0.444298
163	H	0.932553	0.507311	0.757456
164	H	0.948742	0.394927	0.870217
165	H	0.986073	0.408583	0.196919
166	H	0.984537	0.456229	0.534086
167	H	0.039021	0.519061	0.580658
168	H	0.047406	0.589038	0.383064
169	H	0.087954	0.625228	0.076723
170	H	0.151376	0.644302	0.867412
171	H	0.179276	0.646173	0.523891
172	H	0.101473	0.51392	0.25827
173	H	0.196063	0.634287	0.207751
174	H	0.846047	0.354371	0.288023
