data_C78H36N12O6S12_2023-05-13_05:49:05
#******************************************
#
# CIF file created by Zeo++
# Zeo++ is an open source package to
# analyze microporous materials
#
#*******************************************

_cell_length_a		45.7952   
_cell_length_b		46.0937   
_cell_length_c		7   
_cell_angle_alpha		90   
_cell_angle_beta		90   
_cell_angle_gamma		119.717   

_symmetry_space_group_name_H-M		'P1'
_symmetry_Int_Tables_number		1
_symmetry_cell_setting		Monoclinic

loop_
_symmetry_equiv_pos_as_xyz
'+x,+y,+z'

loop_
_atom_site_label
_atom_site_type_symbol
_atom_site_fract_x
_atom_site_fract_y
_atom_site_fract_z
1	C	0.367174	0.673735	0.999995
2	O	0.396843	0.678933	0.999991
3	C	0.340374	0.639	0.999998
4	C	0.3456	0.613397	0
5	N	0.378812	0.619384	0
6	C	0.306063	0.632835	3e-06
7	O	0.281977	0.602896	5e-06
8	C	0.297801	0.659548	6e-06
9	C	0.266226	0.653102	5e-06
10	N	0.240149	0.619039	0
11	C	0.325891	0.694006	4e-06
12	O	0.319324	0.717107	7e-06
13	C	0.360754	0.701719	0.999999
14	C	0.385516	0.733155	0.999998
15	N	0.380517	0.761059	0
16	H	0.325083	0.588472	1e-06
17	H	0.259552	0.672236	8e-06
18	H	0.41058	0.737643	0.999997
19	C	0.632826	0.326265	0.999995
20	O	0.603157	0.321067	0.999991
21	C	0.659626	0.361	0.999998
22	C	0.6544	0.386603	0
23	N	0.621188	0.380616	0
24	C	0.693937	0.367165	3e-06
25	O	0.718023	0.397104	5e-06
26	C	0.702199	0.340452	6e-06
27	C	0.733774	0.346898	5e-06
28	N	0.759851	0.380961	0
29	C	0.674109	0.305994	4e-06
30	O	0.680676	0.282893	7e-06
31	C	0.639246	0.298281	0.999999
32	C	0.614484	0.266845	0.999998
33	N	0.619483	0.238941	0
34	H	0.674917	0.411528	1e-06
35	H	0.740448	0.327764	8e-06
36	H	0.58942	0.262357	0.999997
37	C	0.399098	0.5994	0
38	C	0.390105	0.60826	0.167259
39	C	0.401202	0.597329	0.328554
40	C	0.418231	0.580551	0.278479
41	C	0.432889	0.566111	0.40366
42	C	0.449878	0.549376	0.353747
43	C	0.461333	0.53809	0.51392
44	C	0.479866	0.519833	0.502778
45	C	0.490516	0.509341	0.661178
46	N	0.507725	0.492388	0.648498
47	C	0.514292	0.485919	0.469436
48	C	0.532796	0.467691	0.452691
49	C	0.543067	0.45757	0.612521
50	S	0.564135	0.436816	0.558399
51	C	0.560334	0.440563	0.316873
52	C	0.573735	0.427362	0.174514
53	C	0.571739	0.429329	0.977417
54	C	0.587468	0.413835	0.876207
55	C	0.600902	0.4006	0
56	S	0.595006	0.406407	0.23197
57	C	0.54301	0.45763	0.28246
58	C	0.503648	0.496406	0.311102
59	N	0.486447	0.51335	0.323746
60	C	0.452299	0.546991	0.682776
61	S	0.430849	0.568122	0.647942
62	S	0.420317	0.578496	0.033132
63	H	0.376396	0.621765	0.17587
64	H	0.396694	0.60177	0.474769
65	H	0.454295	0.545024	0.207011
66	H	0.485754	0.514032	0.806346
67	H	0.539192	0.461386	0.760898
68	H	0.559543	0.441345	0.906427
69	H	0.588651	0.412671	0.722071
70	H	0.537833	0.462731	0.139285
71	H	0.508457	0.491669	0.166115
72	H	0.456903	0.542456	0.828182
73	C	0.400459	0.801028	0
74	C	0.391617	0.783308	0.167259
75	C	0.402526	0.805172	0.328554
76	C	0.419268	0.838725	0.278479
77	C	0.433678	0.867605	0.40366
78	C	0.450378	0.901076	0.353747
79	C	0.46164	0.923646	0.51392
80	C	0.479859	0.960161	0.502778
81	C	0.490329	0.981143	0.661178
82	N	0.507246	0.015049	0.648498
83	C	0.513701	0.027987	0.469436
84	C	0.531891	0.064444	0.452691
85	C	0.541991	0.084683	0.612521
86	S	0.562702	0.126192	0.558399
87	C	0.558962	0.1187	0.316873
88	C	0.572136	0.145104	0.174514
89	C	0.570172	0.14117	0.977417
90	C	0.585634	0.172158	0.876207
91	C	0.598841	0.198627	0
92	S	0.593046	0.187012	0.23197
93	C	0.541931	0.084567	0.28246
94	C	0.503237	0.007016	0.311102
95	N	0.486328	0.973127	0.323746
96	C	0.452758	0.905846	0.682776
97	S	0.431672	0.863585	0.647942
98	S	0.42132	0.842835	0.033132
99	H	0.378141	0.756299	0.17587
100	H	0.398094	0.796289	0.474769
101	H	0.454721	0.909779	0.207011
102	H	0.485648	0.971762	0.806346
103	H	0.538183	0.07705	0.760898
104	H	0.558182	0.11714	0.906427
105	H	0.586796	0.174488	0.722071
106	H	0.536841	0.074366	0.139285
107	H	0.507963	0.016489	0.166115
108	H	0.457284	0.914916	0.828182
109	C	0.199921	0.599055	0
110	C	0.217756	0.607914	0.167259
111	C	0.19575	0.596982	0.328554
112	C	0.161979	0.580206	0.278479
113	C	0.132911	0.565766	0.40366
114	C	0.099222	0.54903	0.353747
115	C	0.076505	0.537746	0.51392
116	C	0.039753	0.519489	0.502778
117	C	0.018633	0.508998	0.661178
118	N	0.984507	0.492045	0.648498
119	C	0.971485	0.485576	0.469436
120	C	0.934791	0.467347	0.452691
121	C	0.91442	0.457229	0.612521
122	S	0.872641	0.436474	0.558399
123	C	0.880182	0.440219	0.316873
124	C	0.853607	0.427017	0.174514
125	C	0.857566	0.428983	0.977417
126	C	0.826376	0.413489	0.876207
127	C	0.799734	0.400255	0
128	S	0.811425	0.406063	0.23197
129	C	0.914537	0.457285	0.28246
130	C	0.992593	0.496061	0.311102
131	N	0.026702	0.513006	0.323746
132	C	0.094421	0.546645	0.682776
133	S	0.136957	0.567776	0.647942
134	S	0.157841	0.578151	0.033132
135	H	0.244941	0.621418	0.17587
136	H	0.204691	0.601423	0.474769
137	H	0.090462	0.544679	0.207011
138	H	0.028076	0.513688	0.806346
139	H	0.922103	0.461046	0.760898
140	H	0.881753	0.440998	0.906427
141	H	0.824031	0.412323	0.722071
142	H	0.924804	0.462385	0.139285
143	H	0.983058	0.491324	0.166115
144	H	0.085292	0.54211	0.828182
