data_C66H42N6O6_2023-05-11_06:25:10
#******************************************
#
# CIF file created by Zeo++
# Zeo++ is an open source package to
# analyze microporous materials
#
#*******************************************

_cell_length_a		35.8525   
_cell_length_b		36.1511   
_cell_length_c		7   
_cell_angle_alpha		90   
_cell_angle_beta		90   
_cell_angle_gamma		119.639   

_symmetry_space_group_name_H-M		'P1'
_symmetry_Int_Tables_number		1
_symmetry_cell_setting		Monoclinic

loop_
_symmetry_equiv_pos_as_xyz
'+x,+y,+z'

loop_
_atom_site_label
_atom_site_type_symbol
_atom_site_fract_x
_atom_site_fract_y
_atom_site_fract_z
1	C	0.376544	0.675672	0.999995
2	O	0.414431	0.682295	0.999991
3	C	0.342382	0.631418	0.999998
4	C	0.349109	0.598799	0
5	N	0.391519	0.606427	0
6	C	0.298568	0.623563	3e-06
7	O	0.267862	0.58542	5e-06
8	C	0.287961	0.657597	6e-06
9	C	0.247643	0.649384	5e-06
10	N	0.214403	0.605987	0
11	C	0.323772	0.701498	4e-06
12	O	0.315337	0.73093	7e-06
13	C	0.368288	0.711325	0.999999
14	C	0.399854	0.751375	0.999998
15	N	0.393412	0.786927	0
16	H	0.322952	0.567044	1e-06
17	H	0.23908	0.673762	8e-06
18	H	0.43186	0.757094	0.999997
19	C	0.623456	0.324328	0.999995
20	O	0.585569	0.317705	0.999991
21	C	0.657618	0.368582	0.999998
22	C	0.650891	0.401201	0
23	N	0.608481	0.393573	0
24	C	0.701432	0.376437	3e-06
25	O	0.732138	0.41458	5e-06
26	C	0.712039	0.342403	6e-06
27	C	0.752357	0.350616	5e-06
28	N	0.785597	0.394013	0
29	C	0.676228	0.298502	4e-06
30	O	0.684663	0.26907	7e-06
31	C	0.631712	0.288675	0.999999
32	C	0.600146	0.248625	0.999998
33	N	0.606588	0.213073	0
34	H	0.677048	0.432956	1e-06
35	H	0.76092	0.326238	8e-06
36	H	0.56814	0.242906	0.999997
37	C	0.582529	0.419034	0
38	C	0.562819	0.437978	0.916336
39	C	0.545825	0.454254	0.061736
40	C	0.522443	0.477509	0.031256
41	C	0.536416	0.509604	0.892922
42	C	0.514252	0.531886	0.862161
43	C	0.477555	0.522488	0.968746
44	C	0.454173	0.545744	0.938266
45	C	0.444452	0.555108	0.765501
46	C	0.41991	0.57864	0.78728
47	C	0.417471	0.580966	0
48	C	0.437182	0.562022	0.083665
49	C	0.463582	0.490394	0.107081
50	C	0.485745	0.468112	0.137842
51	C	0.555544	0.444887	0.234501
52	C	0.580086	0.421356	0.21272
53	H	0.559397	0.440748	0.764644
54	H	0.565005	0.517962	0.808699
55	H	0.526276	0.556967	0.755104
56	H	0.452282	0.5468	0.628896
57	H	0.437485	0.610276	0.72253
58	H	0.388051	0.560692	0.722586
59	H	0.440605	0.559254	0.235358
60	H	0.434993	0.482036	0.191305
61	H	0.473722	0.443031	0.244899
62	H	0.547711	0.453193	0.371107
63	H	0.611945	0.439304	0.277424
64	H	0.562511	0.389719	0.277459
65	C	0.580301	0.161713	0
66	C	0.561411	0.123428	0.916336
67	C	0.545181	0.090477	0.061736
68	C	0.521986	0.044285	0.031256
69	C	0.48964	0.026231	0.892922
70	C	0.467413	0.982209	0.862161
71	C	0.477121	0.955276	0.968746
72	C	0.453926	0.909084	0.938266
73	C	0.444588	0.890181	0.765501
74	C	0.421123	0.842568	0.78728
75	C	0.418804	0.837848	0
76	C	0.437694	0.876132	0.083665
77	C	0.509468	0.97333	0.107081
78	C	0.531694	0.017352	0.137842
79	C	0.554522	0.109381	0.234501
80	C	0.577985	0.156993	0.21272
81	H	0.558652	0.117297	0.764644
82	H	0.481035	0.046184	0.808699
83	H	0.442128	0.969192	0.755104
84	H	0.452879	0.906167	0.628896
85	H	0.389211	0.828528	0.72253
86	H	0.439387	0.828904	0.722586
87	H	0.440451	0.882263	0.235358
88	H	0.518072	0.953376	0.191305
89	H	0.556979	0.030369	0.244899
90	H	0.546234	0.093394	0.371107
91	H	0.559722	0.170656	0.277424
92	H	0.609899	0.171034	0.277459
93	C	0.836503	0.418594	0
94	C	0.875104	0.437934	0.916336
95	C	0.908327	0.454609	0.061736
96	C	0.954905	0.477546	0.031256
97	C	0.973278	0.463505	0.892922
98	C	0.017668	0.485245	0.862161
99	C	0.044657	0.521576	0.968746
100	C	0.091234	0.544513	0.938266
101	C	0.110294	0.554052	0.765501
102	C	0.158299	0.578132	0.78728
103	C	0.163058	0.580526	0
104	C	0.124458	0.561186	0.083665
105	C	0.026284	0.535617	0.107081
106	C	0.981894	0.513877	0.137842
107	C	0.889268	0.445073	0.234501
108	C	0.841262	0.420991	0.21272
109	H	0.881284	0.441295	0.764644
110	H	0.953293	0.435194	0.808699
111	H	0.030929	0.473182	0.755104
112	H	0.094172	0.546374	0.628896
113	H	0.172637	0.560536	0.72253
114	H	0.171895	0.609744	0.722586
115	H	0.118278	0.557823	0.235358
116	H	0.046268	0.563928	0.191305
117	H	0.968632	0.52594	0.244899
118	H	0.905389	0.452753	0.371107
119	H	0.827666	0.38938	0.277424
120	H	0.826924	0.438588	0.277459
