data_C57H36N12O6_2023-05-27_04:20:44
#******************************************
#
# CIF file created by Zeo++
# Zeo++ is an open source package to
# analyze microporous materials
#
#*******************************************

_cell_length_a		32.6672   
_cell_length_b		32.9659   
_cell_length_c		7   
_cell_angle_alpha		90   
_cell_angle_beta		90   
_cell_angle_gamma		119.604   

_symmetry_space_group_name_H-M		'P1'
_symmetry_Int_Tables_number		1
_symmetry_cell_setting		Monoclinic

loop_
_symmetry_equiv_pos_as_xyz
'+x,+y,+z'

loop_
_atom_site_label
_atom_site_type_symbol
_atom_site_fract_x
_atom_site_fract_y
_atom_site_fract_z
1	C	0.38075	0.676539	0.999995
2	O	0.422326	0.683799	0.999991
3	C	0.343292	0.628026	0.999998
4	C	0.3507	0.592267	0
5	N	0.397239	0.600629	0
6	C	0.295211	0.619415	3e-06
7	O	0.261541	0.577601	5e-06
8	C	0.283544	0.656724	6e-06
9	C	0.239301	0.647721	5e-06
10	N	0.202853	0.600147	0
11	C	0.322813	0.70485	4e-06
12	O	0.313533	0.737114	7e-06
13	C	0.371661	0.715624	0.999999
14	C	0.406274	0.759528	0.999998
15	N	0.399177	0.798501	0
16	H	0.322017	0.557456	1e-06
17	H	0.229884	0.674445	8e-06
18	H	0.441397	0.765797	0.999997
19	C	0.61925	0.323461	0.999995
20	O	0.577674	0.316201	0.999991
21	C	0.656708	0.371974	0.999998
22	C	0.6493	0.407733	0
23	N	0.602761	0.399371	0
24	C	0.704789	0.380585	3e-06
25	O	0.738459	0.422399	5e-06
26	C	0.716456	0.343276	6e-06
27	C	0.760699	0.352279	5e-06
28	N	0.797147	0.399853	0
29	C	0.677187	0.29515	4e-06
30	O	0.686467	0.262886	7e-06
31	C	0.628339	0.284376	0.999999
32	C	0.593726	0.240472	0.999998
33	N	0.600823	0.201499	0
34	H	0.677983	0.442544	1e-06
35	H	0.770116	0.325555	8e-06
36	H	0.558603	0.234203	0.999997
37	C	0.425741	0.572718	0
38	C	0.403295	0.57022	0.16869
39	C	0.419643	0.549421	0.30382
40	C	0.451473	0.539566	0.213282
41	C	0.478816	0.519362	0.272512
42	C	0.48635	0.515121	0.458262
43	C	0.516643	0.493029	0.47992
44	C	0.525008	0.484476	0.275001
45	C	0.552031	0.464537	0.207473
46	C	0.587447	0.459171	0.291397
47	C	0.601751	0.435946	0.15943
48	C	0.574259	0.427282	0
49	N	0.544152	0.444211	0.029569
50	C	0.502924	0.50042	0.160485
51	N	0.454729	0.554389	0.027112
52	H	0.37811	0.581955	0.193331
53	H	0.409008	0.54218	0.452014
54	H	0.473364	0.526083	0.57811
55	H	0.498145	0.460263	0.559596
56	H	0.54971	0.51671	0.552066
57	H	0.601777	0.470997	0.432926
58	H	0.628871	0.426594	0.180152
59	H	0.519449	0.441202	0.935128
60	H	0.502654	0.500139	0.006464
61	H	0.475771	0.552833	0.925219
62	C	0.427005	0.854323	0
63	C	0.429694	0.834646	0.16869
64	C	0.450471	0.871417	0.30382
65	C	0.460124	0.91261	0.213282
66	C	0.480215	0.959642	0.272512
67	C	0.484418	0.971286	0.458262
68	C	0.506383	0.023102	0.47992
69	C	0.514914	0.039844	0.275001
70	C	0.534741	0.086297	0.207473
71	C	0.539854	0.126577	0.291397
72	C	0.563085	0.163736	0.15943
73	C	0.572012	0.145195	0
74	N	0.555234	0.098684	0.029569
75	C	0.499064	0.002229	0.160485
76	N	0.445199	0.901119	0.027112
77	H	0.418099	0.798147	0.193331
78	H	0.457834	0.868103	0.452014
79	H	0.473502	0.947593	0.57811
80	H	0.539466	0.037351	0.559596
81	H	0.482318	0.032248	0.552066
82	H	0.527853	0.128988	0.432926
83	H	0.57227	0.199781	0.180152
84	H	0.558456	0.077287	0.935128
85	H	0.499348	0.002241	0.006464
86	H	0.446596	0.923432	0.925219
87	C	0.146522	0.572236	0
88	C	0.166279	0.594411	0.16869
89	C	0.129154	0.578439	0.30382
90	C	0.087672	0.547101	0.213282
91	C	0.040237	0.520273	0.272512
92	C	0.0285	0.51287	0.458262
93	C	0.976242	0.483146	0.47992
94	C	0.959346	0.474957	0.275001
95	C	0.912496	0.448443	0.207473
96	C	0.871968	0.41353	0.291397
97	C	0.834432	0.399595	0.15943
98	C	0.852998	0.4268	0
99	N	0.899882	0.456382	0.029569
100	C	0.997281	0.496628	0.160485
101	N	0.099341	0.543769	0.027112
102	H	0.203059	0.619175	0.193331
103	H	0.132427	0.588994	0.452014
104	H	0.052402	0.525601	0.57811
105	H	0.961657	0.501664	0.559596
106	H	0.96724	0.45032	0.552066
107	H	0.869639	0.399291	0.432926
108	H	0.798128	0.372902	0.180152
109	H	0.921363	0.480788	0.935128
110	H	0.997267	0.496897	0.006464
111	H	0.076901	0.523012	0.925219
