data_C90H42N6O6S6_2023-05-13_00:40:57
#******************************************
#
# CIF file created by Zeo++
# Zeo++ is an open source package to
# analyze microporous materials
#
#*******************************************

_cell_length_a		43.5329   
_cell_length_b		43.8314   
_cell_length_c		7   
_cell_angle_alpha		90   
_cell_angle_beta		90   
_cell_angle_gamma		119.702   

_symmetry_space_group_name_H-M		'P1'
_symmetry_Int_Tables_number		1
_symmetry_cell_setting		Monoclinic

loop_
_symmetry_equiv_pos_as_xyz
'+x,+y,+z'

loop_
_atom_site_label
_atom_site_type_symbol
_atom_site_fract_x
_atom_site_fract_y
_atom_site_fract_z
1	C	0.36893	0.674099	0.999995
2	O	0.40014	0.679564	0.999991
3	C	0.340749	0.637576	0.999998
4	C	0.346254	0.610656	0
5	N	0.38119	0.616951	0
6	C	0.304656	0.631094	3e-06
7	O	0.279327	0.599614	5e-06
8	C	0.295956	0.659182	6e-06
9	C	0.262743	0.652404	5e-06
10	N	0.235321	0.616588	0
11	C	0.325496	0.695413	4e-06
12	O	0.31858	0.719703	7e-06
13	C	0.362168	0.703523	0.999999
14	C	0.388207	0.736576	0.999998
15	N	0.38294	0.765917	0
16	H	0.324679	0.584448	1e-06
17	H	0.255716	0.672522	8e-06
18	H	0.414573	0.741296	0.999997
19	C	0.63107	0.325901	0.999995
20	O	0.59986	0.320436	0.999991
21	C	0.659251	0.362424	0.999998
22	C	0.653746	0.389344	0
23	N	0.61881	0.383049	0
24	C	0.695344	0.368906	3e-06
25	O	0.720673	0.400386	5e-06
26	C	0.704044	0.340818	6e-06
27	C	0.737257	0.347596	5e-06
28	N	0.764679	0.383412	0
29	C	0.674504	0.304587	4e-06
30	O	0.68142	0.280297	7e-06
31	C	0.637832	0.296477	0.999999
32	C	0.611793	0.263424	0.999998
33	N	0.61706	0.234083	0
34	H	0.675321	0.415552	1e-06
35	H	0.744284	0.327478	8e-06
36	H	0.585427	0.258704	0.999997
37	C	0.597464	0.404062	0
38	C	0.598204	0.403323	0.804755
39	S	0.577313	0.423882	0.708059
40	C	0.566967	0.434077	0.928958
41	C	0.547197	0.453538	0.946629
42	C	0.539149	0.461461	0.128123
43	C	0.520504	0.479814	0.15186
44	C	0.512658	0.487539	0.333649
45	C	0.494117	0.505791	0.354557
46	C	0.4829	0.51683	0.194306
47	C	0.464201	0.535237	0.212898
48	C	0.4528	0.546459	0.053372
49	C	0.43303	0.56592	0.071042
50	C	0.420198	0.578553	0.927677
51	C	0.402536	0.595938	0
52	C	0.40179	0.596671	0.195244
53	S	0.422678	0.576109	0.291941
54	C	0.460848	0.538536	0.871877
55	C	0.479493	0.520183	0.848141
56	C	0.487339	0.512458	0.666352
57	C	0.505881	0.494207	0.645444
58	C	0.517097	0.483167	0.805694
59	C	0.535796	0.46476	0.787102
60	C	0.509407	0.490737	0.989383
61	C	0.49059	0.50926	0.010618
62	C	0.579804	0.421448	0.072323
63	H	0.609861	0.391845	0.71383
64	H	0.547379	0.453359	0.255984
65	H	0.520927	0.4794	0.461388
66	H	0.488501	0.511319	0.497901
67	H	0.458695	0.540658	0.356642
68	H	0.423298	0.575502	0.7767
69	H	0.390131	0.608148	0.28617
70	H	0.452617	0.546637	0.744017
71	H	0.47907	0.520597	0.538611
72	H	0.511496	0.488678	0.502099
73	H	0.541303	0.459339	0.643359
74	H	0.576707	0.424503	0.2233
75	C	0.595358	0.191695	0
76	C	0.596095	0.193163	0.804755
77	S	0.575581	0.152039	0.708059
78	C	0.565409	0.131661	0.928958
79	C	0.545991	0.092739	0.946629
80	C	0.538086	0.076894	0.128123
81	C	0.519773	0.040187	0.15186
82	C	0.512065	0.024739	0.333649
83	C	0.493854	0.988237	0.354557
84	C	0.482839	0.966156	0.194306
85	C	0.464473	0.929343	0.212898
86	C	0.453275	0.906898	0.053372
87	C	0.433857	0.867977	0.071042
88	C	0.421252	0.842712	0.927677
89	C	0.403906	0.807942	0
90	C	0.403175	0.806475	0.195244
91	S	0.423691	0.847598	0.291941
92	C	0.461181	0.922743	0.871877
93	C	0.479494	0.95945	0.848141
94	C	0.487201	0.974898	0.666352
95	C	0.505413	0.011401	0.645444
96	C	0.516428	0.033481	0.805694
97	C	0.534794	0.070294	0.787102
98	C	0.508875	0.018342	0.989383
99	C	0.490392	0.981295	0.010618
100	C	0.57801	0.156926	0.072323
101	H	0.607548	0.216116	0.71383
102	H	0.546169	0.093097	0.255984
103	H	0.520186	0.041018	0.461388
104	H	0.488338	0.97718	0.497901
105	H	0.459063	0.918502	0.356642
106	H	0.424296	0.848815	0.7767
107	H	0.391723	0.783522	0.28617
108	H	0.453098	0.906541	0.744017
109	H	0.479081	0.95862	0.538611
110	H	0.510929	0.022457	0.502099
111	H	0.540203	0.081136	0.643359
112	H	0.574961	0.150822	0.2233
113	C	0.806629	0.403699	0
114	C	0.805152	0.40297	0.804755
115	S	0.846556	0.423534	0.708059
116	C	0.867075	0.433718	0.928958
117	C	0.906263	0.453178	0.946629
118	C	0.922216	0.461101	0.128123
119	C	0.959174	0.479454	0.15186
120	C	0.974728	0.487177	0.333649
121	C	0.01148	0.505428	0.354557
122	C	0.033712	0.516469	0.194306
123	C	0.070777	0.534875	0.212898
124	C	0.093375	0.546098	0.053372
125	C	0.132563	0.565558	0.071042
126	C	0.158001	0.57819	0.927677
127	C	0.193009	0.595575	0
128	C	0.194486	0.59631	0.195244
129	S	0.153081	0.575749	0.291941
130	C	0.077422	0.538176	0.871877
131	C	0.040464	0.519823	0.848141
132	C	0.02491	0.512099	0.666352
133	C	0.988158	0.493848	0.645444
134	C	0.965926	0.482808	0.805694
135	C	0.928861	0.464401	0.787102
136	C	0.981169	0.490377	0.989383
137	C	0.018469	0.5089	0.010618
138	C	0.841637	0.421082	0.072323
139	H	0.782041	0.391495	0.71383
140	H	0.905902	0.452999	0.255984
141	H	0.958338	0.479038	0.461388
142	H	0.022612	0.510956	0.497901
143	H	0.081692	0.540295	0.356642
144	H	0.151856	0.575138	0.7767
145	H	0.217596	0.607786	0.28617
146	H	0.093735	0.546278	0.744017
147	H	0.0413	0.520239	0.538611
148	H	0.977026	0.488321	0.502099
149	H	0.917945	0.458981	0.643359
150	H	0.847782	0.42413	0.2233
