data_C84H48N12O6S6_2023-05-11_01:01:39
#******************************************
#
# CIF file created by Zeo++
# Zeo++ is an open source package to
# analyze microporous materials
#
#*******************************************

_cell_length_a		46.4065   
_cell_length_b		46.705   
_cell_length_c		7   
_cell_angle_alpha		90   
_cell_angle_beta		90   
_cell_angle_gamma		119.721   

_symmetry_space_group_name_H-M		'P1'
_symmetry_Int_Tables_number		1
_symmetry_cell_setting		Monoclinic

loop_
_symmetry_equiv_pos_as_xyz
'+x,+y,+z'

loop_
_atom_site_label
_atom_site_type_symbol
_atom_site_fract_x
_atom_site_fract_y
_atom_site_fract_z
1	C	0.366728	0.673643	0.999995
2	O	0.396007	0.678773	0.999991
3	C	0.340279	0.639361	0.999998
4	C	0.345435	0.614092	0
5	N	0.378209	0.620001	0
6	C	0.306419	0.633276	3e-06
7	O	0.282648	0.603728	5e-06
8	C	0.298268	0.659641	6e-06
9	C	0.267109	0.653279	5e-06
10	N	0.241373	0.61966	0
11	C	0.325991	0.693649	4e-06
12	O	0.319512	0.716449	7e-06
13	C	0.360396	0.701262	0.999999
14	C	0.384834	0.732287	0.999998
15	N	0.379902	0.759827	0
16	H	0.325186	0.589493	1e-06
17	H	0.260525	0.672163	8e-06
18	H	0.409568	0.736717	0.999997
19	C	0.633272	0.326357	0.999995
20	O	0.603993	0.321227	0.999991
21	C	0.659721	0.360639	0.999998
22	C	0.654565	0.385908	0
23	N	0.621791	0.379999	0
24	C	0.693581	0.366724	3e-06
25	O	0.717352	0.396272	5e-06
26	C	0.701732	0.340359	6e-06
27	C	0.732891	0.346721	5e-06
28	N	0.758627	0.38034	0
29	C	0.674009	0.306351	4e-06
30	O	0.680488	0.283551	7e-06
31	C	0.639604	0.298738	0.999999
32	C	0.615166	0.267713	0.999998
33	N	0.620098	0.240173	0
34	H	0.674814	0.410507	1e-06
35	H	0.739475	0.327837	8e-06
36	H	0.590432	0.263283	0.999997
37	C	0.601773	0.399722	0
38	C	0.584616	0.416654	0.002709
39	C	0.577793	0.423513	0.813588
40	C	0.56044	0.440669	0.767458
41	C	0.552836	0.448289	0.596786
42	C	0.534942	0.465926	0.623235
43	C	0.531307	0.469382	0.810943
44	C	0.515065	0.485342	0.906851
45	C	0.499871	0.500363	0.810397
46	N	0.484752	0.515221	0.899824
47	C	0.485082	0.514805	0.09319
48	C	0.468843	0.530769	0.189094
49	C	0.465258	0.534276	0.376801
50	C	0.44735	0.551899	0.403242
51	C	0.439688	0.559462	0.232567
52	C	0.422303	0.576584	0.186428
53	C	0.40975	0.588973	0.322391
54	S	0.390126	0.608294	0.223135
55	C	0.398227	0.600278	0
56	C	0.415397	0.58336	0.997302
57	C	0.452737	0.546636	0.076236
58	C	0.500275	0.499783	0.189645
59	N	0.515393	0.484924	0.100218
60	C	0.547363	0.453465	0.923794
61	C	0.590391	0.411171	0.677617
62	S	0.609959	0.391792	0.77686
63	H	0.577349	0.423739	0.13358
64	H	0.558765	0.442535	0.458
65	H	0.526306	0.474532	0.505151
66	H	0.499208	0.501091	0.655742
67	H	0.473941	0.525718	0.494887
68	H	0.441453	0.557686	0.542026
69	H	0.410926	0.587838	0.476266
70	H	0.422617	0.576226	0.866436
71	H	0.432508	0.52841	0.987291
72	H	0.47102	0.5668	0.987398
73	H	0.500937	0.499054	0.344301
74	H	0.529046	0.433283	0.012389
75	H	0.567575	0.471656	0.012982
76	H	0.589278	0.412371	0.523744
77	C	0.599725	0.200386	0
78	C	0.582828	0.166549	0.002709
79	C	0.575982	0.152967	0.813588
80	C	0.558862	0.118715	0.767458
81	C	0.551256	0.103602	0.596786
82	C	0.533656	0.068335	0.623235
83	C	0.530208	0.061296	0.810943
84	C	0.514281	0.029332	0.906851
85	C	0.499291	0.999341	0.810397
86	N	0.484465	0.969587	0.899824
87	C	0.484879	0.970326	0.09319
88	C	0.468949	0.938362	0.189094
89	C	0.46545	0.931322	0.376801
90	C	0.447863	0.896055	0.403242
91	C	0.440316	0.880943	0.232567
92	C	0.42323	0.846691	0.186428
93	C	0.410866	0.821934	0.322391
94	S	0.391585	0.783276	0.223135
95	C	0.399585	0.799274	0
96	C	0.416468	0.833111	0.997302
97	C	0.453115	0.906626	0.076236
98	C	0.499871	0.000318	0.189645
99	N	0.514699	0.030072	0.100218
100	C	0.546093	0.093033	0.923794
101	C	0.588299	0.177723	0.677617
102	S	0.607637	0.216381	0.77686
103	H	0.575758	0.152303	0.13358
104	H	0.556998	0.115199	0.458
105	H	0.525067	0.05122	0.505151
106	H	0.498564	0.99796	0.655742
107	H	0.47399	0.948437	0.494887
108	H	0.442088	0.884457	0.542026
109	H	0.411998	0.824227	0.476266
110	H	0.423587	0.847358	0.866436
111	H	0.47152	0.904705	0.987291
112	H	0.432776	0.904691	0.987398
113	H	0.500598	0.001699	0.344301
114	H	0.566451	0.094953	0.012389
115	H	0.527722	0.09497	0.012982
116	H	0.5871	0.175427	0.523744
117	C	0.797987	0.399381	0
118	C	0.832041	0.416286	0.002709
119	C	0.84571	0.423009	0.813588
120	C	0.880182	0.440106	0.767458
121	C	0.895392	0.447597	0.596786
122	C	0.930886	0.465228	0.623235
123	C	0.93797	0.468811	0.810943
124	C	0.970139	0.484814	0.906851
125	C	0.000323	0.499785	0.810397
126	N	0.030268	0.514682	0.899824
127	C	0.029523	0.514357	0.09319
128	C	0.061692	0.530357	0.189094
129	C	0.068777	0.533891	0.376801
130	C	0.104272	0.551535	0.403242
131	C	0.11948	0.559084	0.232567
132	C	0.153952	0.576214	0.186428
133	C	0.178868	0.588582	0.322391
134	S	0.217774	0.607919	0.223135
135	C	0.201673	0.599937	0
136	C	0.167619	0.583019	0.997302
137	C	0.093633	0.546227	0.076236
138	C	0.999339	0.499388	0.189645
139	N	0.969394	0.484492	0.100218
140	C	0.906029	0.452991	0.923794
141	C	0.820795	0.410595	0.677617
142	S	0.781889	0.391315	0.77686
143	H	0.846378	0.423448	0.13358
144	H	0.883721	0.441755	0.458
145	H	0.948111	0.473737	0.505151
146	H	0.001713	0.500438	0.655742
147	H	0.051553	0.525334	0.494887
148	H	0.115944	0.557346	0.542026
149	H	0.17656	0.587423	0.476266
150	H	0.15328	0.575905	0.866436
151	H	0.095457	0.566373	0.987291
152	H	0.095689	0.527998	0.987398
153	H	0.997949	0.498736	0.344301
154	H	0.903988	0.471254	0.012389
155	H	0.904188	0.432863	0.012982
156	H	0.823106	0.411691	0.523744
