data_C84H48N6O6S9_2023-05-11_08:28:25
#******************************************
#
# CIF file created by Zeo++
# Zeo++ is an open source package to
# analyze microporous materials
#
#*******************************************

_cell_length_a		47.597   
_cell_length_b		47.8955   
_cell_length_c		7   
_cell_angle_alpha		90   
_cell_angle_beta		90   
_cell_angle_gamma		119.728   

_symmetry_space_group_name_H-M		'P1'
_symmetry_Int_Tables_number		1
_symmetry_cell_setting		Monoclinic

loop_
_symmetry_equiv_pos_as_xyz
'+x,+y,+z'

loop_
_atom_site_label
_atom_site_type_symbol
_atom_site_fract_x
_atom_site_fract_y
_atom_site_fract_z
1	C	0.365894	0.67347	0.999995
2	O	0.394441	0.678473	0.999991
3	C	0.340102	0.640038	0.999998
4	C	0.345125	0.615395	0
5	N	0.37708	0.621158	0
6	C	0.307088	0.634104	3e-06
7	O	0.283908	0.605289	5e-06
8	C	0.299144	0.659815	6e-06
9	C	0.268764	0.653611	5e-06
10	N	0.243667	0.620826	0
11	C	0.326179	0.69298	4e-06
12	O	0.319865	0.715214	7e-06
13	C	0.359723	0.700404	0.999999
14	C	0.383555	0.73066	0.999998
15	N	0.37875	0.757518	0
16	H	0.325379	0.591406	1e-06
17	H	0.262346	0.672027	8e-06
18	H	0.407671	0.734981	0.999997
19	C	0.634106	0.32653	0.999995
20	O	0.605559	0.321527	0.999991
21	C	0.659898	0.359962	0.999998
22	C	0.654875	0.384605	0
23	N	0.62292	0.378842	0
24	C	0.692912	0.365896	3e-06
25	O	0.716092	0.394711	5e-06
26	C	0.700856	0.340185	6e-06
27	C	0.731236	0.346389	5e-06
28	N	0.756333	0.379174	0
29	C	0.673821	0.30702	4e-06
30	O	0.680135	0.284786	7e-06
31	C	0.640277	0.299596	0.999999
32	C	0.616445	0.26934	0.999998
33	N	0.62125	0.242482	0
34	H	0.674621	0.408594	1e-06
35	H	0.737654	0.327973	8e-06
36	H	0.592329	0.265019	0.999997
37	C	0.396594	0.601924	0
38	C	0.3986	0.587745	0.834755
39	C	0.416885	0.571802	0.863178
40	C	0.428231	0.574311	0.048827
41	C	0.447104	0.561985	0.13412
42	C	0.457391	0.54458	0.0356
43	C	0.476099	0.535032	0.156345
44	C	0.490583	0.516378	0.097007
45	C	0.488626	0.504859	0.914307
46	S	0.508365	0.483529	0.889025
47	C	0.520477	0.48895	0.12494
48	C	0.539388	0.475617	0.197195
49	C	0.549318	0.479235	0.379993
50	C	0.568599	0.462704	0.413601
51	C	0.568407	0.448691	0.219847
52	C	0.58325	0.430184	0.166816
53	C	0.601072	0.421225	0.283554
54	C	0.612733	0.402688	0.187556
55	C	0.603406	0.398076	0
56	S	0.581242	0.415394	0.938834
57	C	0.551373	0.456702	0.100204
58	C	0.508987	0.507037	0.216692
59	C	0.477205	0.546893	0.332083
60	C	0.459125	0.565089	0.337062
61	S	0.416015	0.596475	0.185781
62	H	0.387742	0.588541	0.700407
63	H	0.421405	0.559024	0.750535
64	H	0.452777	0.538149	0.886587
65	H	0.476573	0.507683	0.79118
66	H	0.544643	0.491994	0.491256
67	H	0.556988	0.443829	0.521567
68	H	0.593247	0.479969	0.458864
69	H	0.605645	0.427728	0.433191
70	H	0.627047	0.393475	0.253855
71	H	0.546621	0.450439	0.950856
72	H	0.513705	0.513395	0.366253
73	H	0.489189	0.544187	0.455703
74	H	0.475333	0.590246	0.375713
75	H	0.439047	0.554091	0.438763
76	C	0.397946	0.795987	0
77	C	0.412163	0.812076	0.834755
78	C	0.428063	0.846053	0.863178
79	C	0.425483	0.854802	0.048827
80	C	0.437749	0.885766	0.13412
81	C	0.455159	0.91327	0.0356
82	C	0.464639	0.941307	0.156345
83	C	0.483279	0.974212	0.097007
84	C	0.49485	0.98373	0.914307
85	S	0.516146	0.024505	0.889025
86	C	0.51064	0.031117	0.12494
87	C	0.523916	0.063119	0.197195
88	C	0.520232	0.069362	0.379993
89	C	0.536716	0.104912	0.413601
90	C	0.550779	0.118658	0.219847
91	C	0.56927	0.151774	0.166816
92	C	0.578163	0.178346	0.283554
93	C	0.596702	0.208339	0.187556
94	C	0.601381	0.203681	0
95	S	0.584123	0.164492	0.938834
96	C	0.542833	0.093809	0.100204
97	C	0.492553	0.001743	0.216692
98	C	0.45273	0.930606	0.332083
99	C	0.434568	0.894591	0.337062
100	S	0.403308	0.820653	0.185781
101	H	0.411424	0.800523	0.700407
102	H	0.440861	0.863241	0.750535
103	H	0.461639	0.915093	0.886587
104	H	0.492082	0.968976	0.79118
105	H	0.507453	0.05204	0.491256
106	H	0.555721	0.112176	0.521567
107	H	0.519255	0.112169	0.458864
108	H	0.571612	0.176411	0.433191
109	H	0.605869	0.231687	0.253855
110	H	0.549144	0.095328	0.950856
111	H	0.486147	9.5e-05	0.366253
112	H	0.45538	0.945175	0.455703
113	H	0.409234	0.885635	0.375713
114	H	0.445715	0.88563	0.438763
115	C	0.204957	0.601591	0
116	C	0.188734	0.599681	0.834755
117	C	0.15455	0.581647	0.863178
118	C	0.145784	0.570389	0.048827
119	C	0.114644	0.551751	0.13412
120	C	0.086948	0.541651	0.0356
121	C	0.058759	0.523163	0.156345
122	C	0.025636	0.508911	0.097007
123	C	0.016022	0.510913	0.914307
124	S	0.974986	0.491467	0.889025
125	C	0.96838	0.479434	0.12494
126	C	0.936193	0.460765	0.197195
127	C	0.929948	0.450904	0.379993
128	C	0.894183	0.431886	0.413601
129	C	0.880311	0.432153	0.219847
130	C	0.846977	0.417544	0.166816
131	C	0.820263	0.39993	0.283554
132	C	0.790062	0.388474	0.187556
133	C	0.794711	0.397744	0
134	S	0.834133	0.419615	0.938834
135	C	0.905291	0.448991	0.100204
136	C	0.997958	0.490722	0.216692
137	C	0.069563	0.522002	0.332083
138	C	0.105805	0.539821	0.337062
139	S	0.180175	0.582374	0.185781
140	H	0.200331	0.610437	0.700407
141	H	0.137231	0.577237	0.750535
142	H	0.085082	0.54626	0.886587
143	H	0.030842	0.522843	0.79118
144	H	0.947401	0.455467	0.491256
145	H	0.886789	0.443497	0.521567
146	H	0.886996	0.407364	0.458864
147	H	0.82224	0.395362	0.433191
148	H	0.766582	0.37434	0.253855
149	H	0.903732	0.453734	0.950856
150	H	0.999646	0.486012	0.366253
151	H	0.054929	0.51014	0.455703
152	H	0.114931	0.52362	0.375713
153	H	0.114736	0.55978	0.438763
