data_C102H48N12O6S12_2023-05-15_02:33:54
#******************************************
#
# CIF file created by Zeo++
# Zeo++ is an open source package to
# analyze microporous materials
#
#*******************************************

_cell_length_a		56.7145   
_cell_length_b		57.013   
_cell_length_c		7   
_cell_angle_alpha		90   
_cell_angle_beta		90   
_cell_angle_gamma		119.771   

_symmetry_space_group_name_H-M		'P1'
_symmetry_Int_Tables_number		1
_symmetry_cell_setting		Monoclinic

loop_
_symmetry_equiv_pos_as_xyz
'+x,+y,+z'

loop_
_atom_site_label
_atom_site_type_symbol
_atom_site_fract_x
_atom_site_fract_y
_atom_site_fract_z
1	C	0.360665	0.672385	0.999995
2	O	0.384626	0.676589	0.999991
3	C	0.338994	0.644287	0.999998
4	C	0.343191	0.623576	0
5	N	0.370014	0.628419	0
6	C	0.311283	0.639299	3e-06
7	O	0.291808	0.615082	5e-06
8	C	0.304636	0.660908	6e-06
9	C	0.279135	0.655694	5e-06
10	N	0.258048	0.62814	0
11	C	0.327348	0.688782	4e-06
12	O	0.322066	0.707468	7e-06
13	C	0.355506	0.695021	0.999999
14	C	0.375528	0.72045	0.999998
15	N	0.371516	0.743022	0
16	H	0.326603	0.603414	1e-06
17	H	0.273762	0.671172	8e-06
18	H	0.395771	0.724081	0.999997
19	C	0.639335	0.327615	0.999995
20	O	0.615374	0.323411	0.999991
21	C	0.661006	0.355713	0.999998
22	C	0.656809	0.376424	0
23	N	0.629986	0.371581	0
24	C	0.688717	0.360701	3e-06
25	O	0.708192	0.384918	5e-06
26	C	0.695364	0.339092	6e-06
27	C	0.720865	0.344306	5e-06
28	N	0.741952	0.37186	0
29	C	0.672652	0.311218	4e-06
30	O	0.677934	0.292532	7e-06
31	C	0.644494	0.304979	0.999999
32	C	0.624472	0.27955	0.999998
33	N	0.628484	0.256978	0
34	H	0.673397	0.396586	1e-06
35	H	0.726238	0.328828	8e-06
36	H	0.604229	0.275919	0.999997
37	C	0.386377	0.612254	0
38	C	0.384691	0.613921	0.19413
39	C	0.397602	0.601168	0.289632
40	C	0.408654	0.590247	0.165111
41	C	0.423037	0.576038	0.216656
42	C	0.428403	0.570736	0.399271
43	C	0.443	0.556314	0.401839
44	C	0.448764	0.550621	0.221123
45	C	0.463383	0.536178	0.166297
46	C	0.473656	0.526038	0.303294
47	N	0.487275	0.512582	0.266316
48	C	0.491697	0.508202	0.083037
49	C	0.482036	0.517738	0.932984
50	C	0.467989	0.531617	0.977261
51	C	0.486318	0.513497	0.742421
52	C	0.500163	0.499819	0.698926
53	C	0.50988	0.490227	0.845549
54	C	0.523932	0.476343	0.801769
55	C	0.5339	0.466503	0.945034
56	C	0.548658	0.45192	0.898053
57	C	0.554922	0.44572	0.720665
58	C	0.569502	0.431317	0.731123
59	C	0.574349	0.426541	0.916529
60	C	0.588447	0.412617	0.981158
61	C	0.59332	0.407814	0.167445
62	C	0.607909	0.393403	0.178491
63	C	0.613623	0.387746	0
64	S	0.601929	0.399289	0.822214
65	S	0.560929	0.43981	0.074155
66	C	0.528833	0.471518	0.130347
67	N	0.515375	0.484817	0.178014
68	C	0.505754	0.494314	0.038873
69	S	0.436015	0.563218	0.052001
70	S	0.40295	0.595879	0.931915
71	H	0.374863	0.623632	0.265432
72	H	0.398599	0.600185	0.443719
73	H	0.422248	0.576816	0.527881
74	H	0.448846	0.550537	0.533249
75	H	0.4714	0.528276	0.455188
76	H	0.460696	0.538815	0.859924
77	H	0.478902	0.520816	0.626435
78	H	0.503288	0.496724	0.549757
79	H	0.526965	0.473338	0.652404
80	H	0.54945	0.451117	0.586194
81	H	0.576013	0.424877	0.605918
82	H	0.586786	0.414277	0.292439
83	H	0.613695	0.387694	0.310441
84	H	0.535494	0.464945	0.2546
85	C	0.387654	0.775353	0
86	C	0.38599	0.772021	0.19413
87	C	0.398721	0.797529	0.289632
88	C	0.409623	0.819369	0.165111
89	C	0.423809	0.847788	0.216656
90	C	0.429102	0.858391	0.399271
91	C	0.443499	0.887233	0.401839
92	C	0.449183	0.898622	0.221123
93	C	0.463601	0.927507	0.166297
94	C	0.473724	0.947797	0.303294
95	N	0.487157	0.974707	0.266316
96	C	0.49153	0.983456	0.083037
97	C	0.48201	0.964374	0.932984
98	C	0.468154	0.936618	0.977261
99	C	0.486243	0.972846	0.742421
100	C	0.499899	0.000202	0.698926
101	C	0.509474	0.019394	0.845549
102	C	0.523335	0.047161	0.801769
103	C	0.533158	0.06685	0.945034
104	C	0.547716	0.096011	0.898053
105	C	0.553906	0.108401	0.720665
106	C	0.568284	0.137208	0.731123
107	C	0.573052	0.146772	0.916529
108	C	0.586952	0.174624	0.981158
109	C	0.591747	0.184242	0.167445
110	C	0.606134	0.213066	0.178491
111	C	0.611781	0.224368	0
112	S	0.600258	0.201272	0.822214
113	S	0.559806	0.120245	0.074155
114	C	0.528151	0.056828	0.130347
115	N	0.514875	0.030234	0.178014
116	C	0.505394	0.011231	0.038873
117	S	0.436607	0.873429	0.052001
118	S	0.404001	0.808102	0.931915
119	H	0.376296	0.7526	0.265432
120	H	0.399703	0.799498	0.443719
121	H	0.423032	0.84623	0.527881
122	H	0.449266	0.898786	0.533249
123	H	0.47149	0.94333	0.455188
124	H	0.460969	0.922215	0.859924
125	H	0.478937	0.958201	0.626435
126	H	0.502989	0.006385	0.549757
127	H	0.526334	0.053162	0.652404
128	H	0.548518	0.097597	0.586194
129	H	0.574714	0.15008	0.605918
130	H	0.585295	0.171323	0.292439
131	H	0.611833	0.224491	0.310441
132	H	0.534713	0.069981	0.2546
133	C	0.225547	0.611974	0
134	C	0.228898	0.613639	0.19413
135	C	0.203255	0.600884	0.289632
136	C	0.181301	0.589965	0.165111
137	C	0.152732	0.575755	0.216656
138	C	0.142073	0.570454	0.399271
139	C	0.113079	0.556033	0.401839
140	C	0.101631	0.550339	0.221123
141	C	0.072594	0.535896	0.166297
142	C	0.052198	0.525747	0.303294
143	N	0.025146	0.512292	0.266316
144	C	0.016351	0.507923	0.083037
145	C	0.035533	0.517468	0.932984
146	C	0.063435	0.531346	0.977261
147	C	0.027017	0.513238	0.742421
148	C	0.999517	0.49956	0.698926
149	C	0.980225	0.48996	0.845549
150	C	0.952311	0.476077	0.801769
151	C	0.93252	0.466229	0.945034
152	C	0.903205	0.451649	0.898053
153	C	0.89075	0.44546	0.720665
154	C	0.861792	0.431057	0.731123
155	C	0.852178	0.426268	0.916529
156	C	0.824179	0.41234	0.981158
157	C	0.814511	0.407525	0.167445
158	C	0.785535	0.393112	0.178491
159	C	0.774174	0.387467	0
160	S	0.797391	0.399021	0.822214
161	S	0.878844	0.439527	0.074155
162	C	0.942594	0.471235	0.130347
163	N	0.969328	0.484531	0.178014
164	C	0.98843	0.494036	0.038873
165	S	0.126956	0.562934	0.052001
166	S	0.192627	0.5956	0.931915
167	H	0.24842	0.623349	0.265432
168	H	0.201276	0.599899	0.443719
169	H	0.154298	0.576535	0.527881
170	H	0.101467	0.550258	0.533249
171	H	0.056689	0.527976	0.455188
172	H	0.077914	0.538551	0.859924
173	H	0.041739	0.520564	0.626435
174	H	0.993301	0.496472	0.549757
175	H	0.946279	0.473081	0.652404
176	H	0.90161	0.450867	0.586194
177	H	0.848852	0.424624	0.605918
178	H	0.827497	0.413981	0.292439
179	H	0.77405	0.387396	0.310441
180	H	0.929372	0.464655	0.2546
