data_C57H27N9O6S6_2023-05-30_08:52:32
#******************************************
#
# CIF file created by Zeo++
# Zeo++ is an open source package to
# analyze microporous materials
#
#*******************************************

_cell_length_a		36.0789   
_cell_length_b		36.3775   
_cell_length_c		7   
_cell_angle_alpha		90   
_cell_angle_beta		90   
_cell_angle_gamma		119.641   

_symmetry_space_group_name_H-M		'P1'
_symmetry_Int_Tables_number		1
_symmetry_cell_setting		Monoclinic

loop_
_symmetry_equiv_pos_as_xyz
'+x,+y,+z'

loop_
_atom_site_label
_atom_site_type_symbol
_atom_site_fract_x
_atom_site_fract_y
_atom_site_fract_z
1	C	0.376273	0.675617	0.999995
2	O	0.413923	0.682198	0.999991
3	C	0.342324	0.631637	0.999998
4	C	0.349007	0.59922	0
5	N	0.391151	0.6068	0
6	C	0.298784	0.62383	3e-06
7	O	0.268269	0.585924	5e-06
8	C	0.288245	0.657654	6e-06
9	C	0.24818	0.649491	5e-06
10	N	0.215146	0.606363	0
11	C	0.323834	0.701282	4e-06
12	O	0.315453	0.730531	7e-06
13	C	0.36807	0.711049	0.999999
14	C	0.39944	0.75085	0.999998
15	N	0.39304	0.786181	0
16	H	0.323013	0.567662	1e-06
17	H	0.239671	0.673718	8e-06
18	H	0.431246	0.756533	0.999997
19	C	0.623727	0.324383	0.999995
20	O	0.586077	0.317802	0.999991
21	C	0.657676	0.368363	0.999998
22	C	0.650993	0.40078	0
23	N	0.608849	0.3932	0
24	C	0.701216	0.37617	3e-06
25	O	0.731731	0.414076	5e-06
26	C	0.711755	0.342346	6e-06
27	C	0.75182	0.350509	5e-06
28	N	0.784854	0.393637	0
29	C	0.676166	0.298718	4e-06
30	O	0.684547	0.269469	7e-06
31	C	0.63193	0.288951	0.999999
32	C	0.60056	0.24915	0.999998
33	N	0.60696	0.213819	0
34	H	0.676987	0.432338	1e-06
35	H	0.760329	0.326282	8e-06
36	H	0.568754	0.243467	0.999997
37	C	0.416939	0.581497	0
38	C	0.416004	0.582419	0.195276
39	S	0.441226	0.557674	0.292427
40	C	0.453728	0.545401	0.071716
41	C	0.477514	0.522061	0.054846
42	C	0.487589	0.512177	0.876829
43	N	0.509229	0.490947	0.847208
44	C	0.522254	0.478166	0.001912
45	C	0.545668	0.455194	0.964239
46	C	0.562738	0.438439	0.092526
47	C	0.583061	0.418503	0
48	C	0.581589	0.419956	0.804907
49	S	0.555308	0.445745	0.732436
50	C	0.513864	0.486396	0.185998
51	C	0.491479	0.508359	0.211778
52	C	0.438288	0.560548	0.927903
53	H	0.401898	0.596262	0.285958
54	H	0.478424	0.521171	0.744628
55	H	0.560745	0.440389	0.24613
56	H	0.594471	0.407321	0.700898
57	H	0.524221	0.476234	0.310714
58	H	0.485434	0.514292	0.357482
59	H	0.442067	0.556837	0.776895
60	C	0.418276	0.836787	0
61	C	0.417357	0.834949	0.195276
62	S	0.442035	0.88444	0.292427
63	C	0.454276	0.908979	0.071716
64	C	0.477553	0.955659	0.054846
65	C	0.487411	0.975428	0.876829
66	N	0.508585	0.01789	0.847208
67	C	0.521331	0.043451	0.001912
68	C	0.544242	0.089396	0.964239
69	C	0.560952	0.1229	0.092526
70	C	0.580835	0.162777	0
71	C	0.579386	0.159879	0.804907
72	S	0.553665	0.108303	0.732436
73	C	0.513123	0.026989	0.185998
74	C	0.491219	0.983063	0.211778
75	C	0.439169	0.878684	0.927903
76	H	0.40355	0.807265	0.285958
77	H	0.478441	0.957441	0.744628
78	H	0.559007	0.118994	0.24613
79	H	0.591987	0.185153	0.700898
80	H	0.523258	0.047313	0.310714
81	H	0.485302	0.971198	0.357482
82	H	0.44287	0.886102	0.776895
83	C	0.164123	0.58106	0
84	C	0.165976	0.581977	0.195276
85	S	0.116076	0.55723	0.292427
86	C	0.091334	0.544964	0.071716
87	C	0.04427	0.521625	0.054846
88	C	0.024337	0.51174	0.876829
89	N	0.981524	0.490507	0.847208
90	C	0.955752	0.477728	0.001912
91	C	0.909428	0.454755	0.964239
92	C	0.875647	0.438006	0.092526
93	C	0.835441	0.418065	0
94	C	0.838363	0.41951	0.804907
95	S	0.890365	0.445296	0.732436
96	C	0.972351	0.48596	0.185998
97	C	0.016639	0.507923	0.211778
98	C	0.12188	0.560113	0.927903
99	H	0.193889	0.595818	0.285958
100	H	0.042472	0.520732	0.744628
101	H	0.879586	0.439961	0.24613
102	H	0.81288	0.40687	0.700898
103	H	0.951858	0.475797	0.310714
104	H	0.028602	0.513854	0.357482
105	H	0.1144	0.556405	0.776895
