data_C78H36N12O6S12_2023-05-11_19:35:43
#******************************************
#
# CIF file created by Zeo++
# Zeo++ is an open source package to
# analyze microporous materials
#
#*******************************************

_cell_length_a		46.1724   
_cell_length_b		46.4709   
_cell_length_c		7   
_cell_angle_alpha		90   
_cell_angle_beta		90   
_cell_angle_gamma		119.719   

_symmetry_space_group_name_H-M		'P1'
_symmetry_Int_Tables_number		1
_symmetry_cell_setting		Monoclinic

loop_
_symmetry_equiv_pos_as_xyz
'+x,+y,+z'

loop_
_atom_site_label
_atom_site_type_symbol
_atom_site_fract_x
_atom_site_fract_y
_atom_site_fract_z
1	C	0.366898	0.673678	0.999995
2	O	0.396325	0.678834	0.999991
3	C	0.340315	0.639224	0.999998
4	C	0.345498	0.613828	0
5	N	0.378438	0.619767	0
6	C	0.306284	0.633108	3e-06
7	O	0.282393	0.603412	5e-06
8	C	0.298091	0.659606	6e-06
9	C	0.266774	0.653211	5e-06
10	N	0.240908	0.619424	0
11	C	0.325953	0.693785	4e-06
12	O	0.319441	0.716699	7e-06
13	C	0.360532	0.701436	0.999999
14	C	0.385093	0.732617	0.999998
15	N	0.380136	0.760295	0
16	H	0.325147	0.589105	1e-06
17	H	0.260155	0.672191	8e-06
18	H	0.409953	0.737069	0.999997
19	C	0.633102	0.326322	0.999995
20	O	0.603675	0.321166	0.999991
21	C	0.659685	0.360776	0.999998
22	C	0.654502	0.386172	0
23	N	0.621562	0.380233	0
24	C	0.693716	0.366892	3e-06
25	O	0.717607	0.396588	5e-06
26	C	0.701909	0.340394	6e-06
27	C	0.733226	0.346789	5e-06
28	N	0.759092	0.380576	0
29	C	0.674047	0.306215	4e-06
30	O	0.680559	0.283301	7e-06
31	C	0.639468	0.298564	0.999999
32	C	0.614907	0.267383	0.999998
33	N	0.619864	0.239705	0
34	H	0.674853	0.410895	1e-06
35	H	0.739845	0.327809	8e-06
36	H	0.590047	0.262931	0.999997
37	C	0.601443	0.400056	0
38	C	0.587867	0.413425	0.879205
39	C	0.572429	0.428636	0.983773
40	C	0.575026	0.426084	0.178899
41	C	0.560501	0.440399	0.33228
42	C	0.563431	0.43752	0.525929
43	S	0.545232	0.455455	0.655056
44	C	0.532852	0.467642	0.452999
45	C	0.514374	0.485845	0.468968
46	C	0.503804	0.496262	0.310608
47	N	0.486737	0.513075	0.322583
48	C	0.480163	0.519548	0.50157
49	C	0.461674	0.537762	0.508489
50	C	0.450524	0.548749	0.356038
51	C	0.433293	0.565722	0.412891
52	C	0.417798	0.580988	0.272507
53	C	0.401145	0.597393	0.328688
54	C	0.389899	0.608473	0.169395
55	C	0.398557	0.599944	0
56	S	0.419688	0.579128	0.028845
57	C	0.431745	0.567245	0.60866
58	S	0.45083	0.548446	0.720761
59	C	0.490712	0.509152	0.660071
60	N	0.507782	0.492335	0.64746
61	C	0.542902	0.457735	0.29084
62	S	0.596012	0.405414	0.233741
63	H	0.588771	0.412528	0.724829
64	H	0.560168	0.440714	0.916669
65	H	0.575344	0.425786	0.600386
66	H	0.508613	0.491528	0.165749
67	H	0.454804	0.544533	0.208967
68	H	0.396989	0.601485	0.475938
69	H	0.376315	0.621855	0.180544
70	H	0.420411	0.578409	0.693802
71	H	0.485968	0.513825	0.805263
72	H	0.537868	0.462688	0.147255
73	C	0.599389	0.199718	0
74	C	0.586048	0.172973	0.879205
75	C	0.570868	0.142552	0.983773
76	C	0.573415	0.147663	0.178899
77	C	0.559129	0.119037	0.33228
78	C	0.562003	0.124803	0.525929
79	S	0.544105	0.088938	0.655056
80	C	0.531943	0.064554	0.452999
81	C	0.513778	0.028145	0.468968
82	C	0.503383	0.007316	0.310608
83	N	0.486606	0.973687	0.322583
84	C	0.480146	0.960737	0.50157
85	C	0.461969	0.924307	0.508489
86	C	0.451006	0.902335	0.356038
87	C	0.434068	0.868385	0.412891
88	C	0.418834	0.837853	0.272507
89	C	0.402463	0.805041	0.328688
90	C	0.391406	0.78288	0.169395
91	C	0.399917	0.79994	0
92	S	0.42069	0.841574	0.028845
93	C	0.432548	0.865337	0.60866
94	S	0.451308	0.902939	0.720761
95	C	0.49052	0.981527	0.660071
96	N	0.507302	0.015162	0.64746
97	C	0.541829	0.084362	0.29084
98	S	0.594042	0.18901	0.233741
99	H	0.586943	0.17476	0.724829
100	H	0.558816	0.118394	0.916669
101	H	0.573712	0.148274	0.600386
102	H	0.508107	0.016786	0.165749
103	H	0.455213	0.910768	0.208967
104	H	0.398379	0.796854	0.475938
105	H	0.378052	0.756116	0.180544
106	H	0.421407	0.843006	0.693802
107	H	0.485857	0.97218	0.805263
108	H	0.536887	0.07445	0.147255
109	C	0.798651	0.399713	0
110	C	0.825567	0.413088	0.879205
111	C	0.856185	0.428298	0.983773
112	C	0.851041	0.425739	0.178899
113	C	0.879852	0.44005	0.33228
114	C	0.874049	0.437163	0.525929
115	S	0.910145	0.455093	0.655056
116	C	0.934687	0.46729	0.452999
117	C	0.97133	0.485496	0.468968
118	C	0.992294	0.495909	0.310608
119	N	0.02614	0.512725	0.322583
120	C	0.039173	0.519202	0.50157
121	C	0.075839	0.537417	0.508489
122	C	0.097952	0.548403	0.356038
123	C	0.132121	0.565379	0.412891
124	C	0.16285	0.580645	0.272507
125	C	0.195874	0.597052	0.328688
126	C	0.218178	0.608133	0.169395
127	C	0.201008	0.599602	0
128	S	0.159105	0.578784	0.028845
129	C	0.135189	0.566904	0.60866
130	S	0.097344	0.548101	0.720761
131	C	0.018249	0.508808	0.660071
132	N	0.984398	0.49199	0.64746
133	C	0.914751	0.457389	0.29084
134	S	0.809428	0.405063	0.233741
135	H	0.823769	0.412198	0.724829
136	H	0.880499	0.440378	0.916669
137	H	0.850426	0.425426	0.600386
138	H	0.982763	0.491172	0.165749
139	H	0.089465	0.544186	0.208967
140	H	0.204114	0.601147	0.475938
141	H	0.245115	0.621516	0.180544
142	H	0.157664	0.578071	0.693802
143	H	0.027657	0.513482	0.805263
144	H	0.924727	0.462349	0.147255
