data_C108H72N12O6_2023-05-10_23:13:07
#******************************************
#
# CIF file created by Zeo++
# Zeo++ is an open source package to
# analyze microporous materials
#
#*******************************************

_cell_length_a		54.3298   
_cell_length_b		54.6283   
_cell_length_c		7   
_cell_angle_alpha		90   
_cell_angle_beta		90   
_cell_angle_gamma		119.761   

_symmetry_space_group_name_H-M		'P1'
_symmetry_Int_Tables_number		1
_symmetry_cell_setting		Monoclinic

loop_
_symmetry_equiv_pos_as_xyz
'+x,+y,+z'

loop_
_atom_site_label
_atom_site_type_symbol
_atom_site_fract_x
_atom_site_fract_y
_atom_site_fract_z
1	C	0.361863	0.672634	0.999995
2	O	0.386876	0.677021	0.999991
3	C	0.339247	0.643312	0.999998
4	C	0.343633	0.621699	0
5	N	0.371632	0.626753	0
6	C	0.310321	0.638108	3e-06
7	O	0.289996	0.612835	5e-06
8	C	0.303377	0.660658	6e-06
9	C	0.276758	0.655216	5e-06
10	N	0.254752	0.626462	0
11	C	0.327081	0.689745	4e-06
12	O	0.321563	0.709245	7e-06
13	C	0.356473	0.696256	0.999999
14	C	0.377369	0.722792	0.999998
15	N	0.373176	0.746348	0
16	H	0.32632	0.600659	1e-06
17	H	0.271147	0.671368	8e-06
18	H	0.398499	0.726581	0.999997
19	C	0.638137	0.327366	0.999995
20	O	0.613124	0.322979	0.999991
21	C	0.660753	0.356688	0.999998
22	C	0.656367	0.378301	0
23	N	0.628368	0.373247	0
24	C	0.689679	0.361892	3e-06
25	O	0.710004	0.387165	5e-06
26	C	0.696623	0.339342	6e-06
27	C	0.723242	0.344784	5e-06
28	N	0.745248	0.373538	0
29	C	0.672919	0.310255	4e-06
30	O	0.678437	0.290755	7e-06
31	C	0.643527	0.303744	0.999999
32	C	0.622631	0.277208	0.999998
33	N	0.626824	0.253652	0
34	H	0.67368	0.399341	1e-06
35	H	0.728853	0.328632	8e-06
36	H	0.601501	0.273419	0.999997
37	C	0.611284	0.390116	0
38	C	0.615753	0.385701	0.181574
39	C	0.603062	0.398236	0.312519
40	C	0.590719	0.410427	0.173516
41	C	0.576022	0.424943	0.230698
42	C	0.570844	0.430052	0.40952
43	C	0.555458	0.445248	0.404934
44	C	0.55084	0.449813	0.222965
45	C	0.536058	0.464411	0.153194
46	C	0.532889	0.467547	0.95835
47	C	0.518704	0.481551	0.895857
48	C	0.507622	0.492484	0.028847
49	C	0.492384	0.507522	0.971161
50	C	0.48131	0.518463	0.10415
51	C	0.46712	0.532461	0.041657
52	C	0.463937	0.535584	0.846813
53	C	0.449146	0.550172	0.777041
54	C	0.444504	0.554714	0.595071
55	C	0.429115	0.569906	0.590484
56	C	0.423958	0.575037	0.769305
57	C	0.409264	0.589556	0.826487
58	C	0.404099	0.594699	0.005577
59	C	0.388716	0.609884	0
60	C	0.384224	0.614275	0.818425
61	C	0.396902	0.601727	0.687482
62	C	0.436322	0.562861	0.908199
63	C	0.475673	0.523994	0.724548
64	N	0.489572	0.510283	0.780624
65	N	0.510425	0.489713	0.219383
66	C	0.524318	0.475997	0.275459
67	C	0.563678	0.437138	0.091806
68	C	0.595905	0.405306	0.994424
69	H	0.626722	0.374866	0.228674
70	H	0.619458	0.414621	0.402349
71	H	0.586624	0.381891	0.402345
72	H	0.576919	0.424048	0.540591
73	H	0.54909	0.451533	0.533471
74	H	0.541268	0.45928	0.850984
75	H	0.516394	0.483835	0.743746
76	H	0.483628	0.516187	0.256261
77	H	0.458746	0.540733	0.149023
78	H	0.450856	0.548413	0.466535
79	H	0.423022	0.575892	0.459413
80	H	0.410219	0.588688	0.136365
81	H	0.373246	0.625101	0.771324
82	H	0.413327	0.618063	0.597532
83	H	0.380496	0.585329	0.597776
84	H	0.452593	0.579462	0.99772
85	H	0.419688	0.546657	0.997938
86	H	0.474373	0.525264	0.570343
87	H	0.525608	0.474718	0.429664
88	H	0.580324	0.453353	0.002192
89	H	0.547417	0.420549	0.00216
90	H	0.589803	0.411334	0.863637
91	C	0.609395	0.219622	0
92	C	0.613802	0.22845	0.181574
93	C	0.601289	0.203384	0.312519
94	C	0.589119	0.179005	0.173516
95	C	0.574629	0.149977	0.230698
96	C	0.569529	0.139755	0.40952
97	C	0.55436	0.109367	0.404934
98	C	0.549803	0.100242	0.222965
99	C	0.535231	0.071048	0.153194
100	C	0.5321	0.064782	0.95835
101	C	0.518122	0.036772	0.895857
102	C	0.507208	0.014897	0.028847
103	C	0.492196	0.984812	0.971161
104	C	0.481275	0.962937	0.10415
105	C	0.467302	0.934927	0.041657
106	C	0.464185	0.928661	0.846813
107	C	0.449622	0.899468	0.777041
108	C	0.445088	0.890342	0.595071
109	C	0.429923	0.859954	0.590484
110	C	0.424801	0.849732	0.769305
111	C	0.410308	0.820704	0.826487
112	C	0.405174	0.810461	0.005577
113	C	0.390016	0.780087	0
114	C	0.385633	0.771259	0.818425
115	C	0.398158	0.796325	0.687482
116	C	0.436955	0.874116	0.908199
117	C	0.475754	0.951839	0.724548
118	N	0.489441	0.979275	0.780624
119	N	0.509974	0.020434	0.219383
120	C	0.523666	0.04787	0.275459
121	C	0.562455	0.125593	0.091806
122	C	0.594232	0.189248	0.994424
123	H	0.624617	0.250116	0.228674
124	H	0.584774	0.203345	0.402349
125	H	0.617764	0.203342	0.402345
126	H	0.575523	0.151758	0.540591
127	H	0.548087	0.096794	0.533471
128	H	0.540353	0.081323	0.850984
129	H	0.515841	0.032208	0.743746
130	H	0.483547	0.967501	0.256261
131	H	0.459044	0.918386	0.149023
132	H	0.451378	0.902915	0.466535
133	H	0.423948	0.847952	0.459413
134	H	0.411174	0.822515	0.136365
135	H	0.374826	0.749593	0.771324
136	H	0.381694	0.796365	0.597532
137	H	0.414686	0.796367	0.597776
138	H	0.420225	0.873738	0.99772
139	H	0.45329	0.87374	0.997938
140	H	0.474487	0.949286	0.570343
141	H	0.524943	0.050423	0.429664
142	H	0.546111	0.125971	0.002192
143	H	0.579174	0.125969	0.00216
144	H	0.588214	0.177194	0.863637
145	C	0.778881	0.389825	0
146	C	0.770006	0.385412	0.181574
147	C	0.795209	0.397943	0.312519
148	C	0.819721	0.41013	0.173516
149	C	0.848908	0.424643	0.230698
150	C	0.859186	0.429755	0.40952
151	C	0.889741	0.444948	0.404934
152	C	0.898917	0.449508	0.222965
153	C	0.928271	0.464104	0.153194
154	C	0.934571	0.467233	0.95835
155	C	0.962734	0.48124	0.895857
156	C	0.984729	0.492182	0.028847
157	C	0.01498	0.507229	0.971161
158	C	0.036975	0.518164	0.10415
159	C	0.065138	0.532175	0.041657
160	C	0.071438	0.535318	0.846813
161	C	0.100792	0.549923	0.777041
162	C	0.109967	0.554507	0.595071
163	C	0.140522	0.569703	0.590484
164	C	0.1508	0.574794	0.769305
165	C	0.179988	0.589303	0.826487
166	C	0.190287	0.594403	0.005577
167	C	0.220828	0.609592	0
168	C	0.229703	0.614028	0.818425
169	C	0.2045	0.60151	0.687482
170	C	0.126283	0.562586	0.908199
171	C	0.048133	0.52373	0.724548
172	N	0.020547	0.510006	0.780624
173	N	0.979162	0.489415	0.219383
174	C	0.951576	0.475696	0.275459
175	C	0.873426	0.436831	0.091806
176	C	0.809422	0.405009	0.994424
177	H	0.748221	0.374581	0.228674
178	H	0.795327	0.381597	0.402349
179	H	0.795172	0.414331	0.402345
180	H	0.847118	0.423757	0.540591
181	H	0.902383	0.451236	0.533471
182	H	0.917939	0.45896	0.850984
183	H	0.967324	0.48352	0.743746
184	H	0.032385	0.515874	0.256261
185	H	0.08177	0.540444	0.149023
186	H	0.097325	0.548235	0.466535
187	H	0.15259	0.575719	0.459413
188	H	0.178167	0.58836	0.136365
189	H	0.251488	0.624868	0.771324
190	H	0.204539	0.585135	0.597532
191	H	0.204379	0.617866	0.597776
192	H	0.126742	0.546363	0.99772
193	H	0.126582	0.579167	0.997938
194	H	0.0507	0.525013	0.570343
195	H	0.949009	0.474422	0.429664
196	H	0.873125	0.420238	0.002192
197	H	0.872969	0.453044	0.00216
198	H	0.821543	0.411035	0.863637
