data_C102H54N6O6S6_2023-05-10_23:54:12
#******************************************
#
# CIF file created by Zeo++
# Zeo++ is an open source package to
# analyze microporous materials
#
#*******************************************

_cell_length_a		43.0461   
_cell_length_b		43.3447   
_cell_length_c		7   
_cell_angle_alpha		90   
_cell_angle_beta		90   
_cell_angle_gamma		119.699   

_symmetry_space_group_name_H-M		'P1'
_symmetry_Int_Tables_number		1
_symmetry_cell_setting		Monoclinic

loop_
_symmetry_equiv_pos_as_xyz
'+x,+y,+z'

loop_
_atom_site_label
_atom_site_type_symbol
_atom_site_fract_x
_atom_site_fract_y
_atom_site_fract_z
1	C	0.369332	0.674182	0.999995
2	O	0.400894	0.679709	0.999991
3	C	0.340834	0.637251	0.999998
4	C	0.346404	0.610028	0
5	N	0.381734	0.616394	0
6	C	0.304334	0.630695	3e-06
7	O	0.278721	0.598864	5e-06
8	C	0.295534	0.659098	6e-06
9	C	0.261946	0.652244	5e-06
10	N	0.234217	0.616027	0
11	C	0.325405	0.695735	4e-06
12	O	0.31841	0.720296	7e-06
13	C	0.362492	0.703936	0.999999
14	C	0.388823	0.737359	0.999998
15	N	0.383494	0.767028	0
16	H	0.324587	0.583528	1e-06
17	H	0.254838	0.672588	8e-06
18	H	0.415486	0.742132	0.999997
19	C	0.630668	0.325818	0.999995
20	O	0.599106	0.320291	0.999991
21	C	0.659166	0.362749	0.999998
22	C	0.653596	0.389972	0
23	N	0.618266	0.383606	0
24	C	0.695666	0.369305	3e-06
25	O	0.721279	0.401136	5e-06
26	C	0.704466	0.340902	6e-06
27	C	0.738054	0.347756	5e-06
28	N	0.765783	0.383973	0
29	C	0.674595	0.304265	4e-06
30	O	0.68159	0.279704	7e-06
31	C	0.637508	0.296064	0.999999
32	C	0.611177	0.262641	0.999998
33	N	0.616506	0.232972	0
34	H	0.675413	0.416472	1e-06
35	H	0.745162	0.327412	8e-06
36	H	0.584514	0.257868	0.999997
37	C	0.596676	0.404854	0
38	C	0.60247	0.43878	0.014989
39	C	0.599773	0.447404	0.208929
40	C	0.591551	0.419706	0.33507
41	C	0.586232	0.41665	0.536846
42	C	0.574542	0.434529	0.64428
43	C	0.564359	0.460811	0.583066
44	C	0.588342	0.496307	0.628735
45	C	0.581182	0.523082	0.575201
46	C	0.549878	0.514935	0.475519
47	C	0.542851	0.541893	0.421417
48	C	0.511673	0.533976	0.322054
49	C	0.486282	0.4988	0.272912
50	C	0.454283	0.489817	0.172147
51	C	0.445375	0.516926	0.109227
52	C	0.419571	0.520651	0.195468
53	C	0.409699	0.54654	0.143989
54	C	0.383415	0.551506	0.230171
55	C	0.379679	0.579566	0.14722
56	C	0.403324	0.595146	0
57	S	0.429445	0.576836	0.960832
58	C	0.430073	0.454307	0.128141
59	C	0.437066	0.427474	0.182952
60	C	0.468384	0.435578	0.282494
61	C	0.475308	0.408601	0.337413
62	C	0.506521	0.416523	0.436425
63	C	0.532147	0.451717	0.483899
64	C	0.525095	0.479213	0.429264
65	C	0.493265	0.47129	0.328143
66	S	0.588333	0.383557	0.211987
67	H	0.608385	0.456736	0.895636
68	H	0.603756	0.473101	0.252109
69	H	0.591449	0.397515	0.610228
70	H	0.571681	0.429453	0.797467
71	H	0.612984	0.503367	0.705228
72	H	0.600378	0.550433	0.611892
73	H	0.561571	0.56949	0.456014
74	H	0.5074	0.55592	0.283589
75	H	0.461424	0.533499	0.991697
76	H	0.405022	0.503121	0.313953
77	H	0.367393	0.535518	0.349088
78	H	0.36072	0.587527	0.19422
79	H	0.405626	0.447329	0.049858
80	H	0.417806	0.400122	0.146659
81	H	0.456509	0.380988	0.303614
82	H	0.510631	0.394527	0.475771
83	C	0.594561	0.19011	0
84	C	0.560467	0.162125	0.014989
85	C	0.551826	0.150882	0.208929
86	C	0.579682	0.170273	0.33507
87	C	0.582782	0.168043	0.536846
88	C	0.564903	0.138698	0.64428
89	C	0.538581	0.102492	0.583066
90	C	0.502801	0.090957	0.628735
91	C	0.475965	0.057255	0.575201
92	C	0.484333	0.034357	0.475519
93	C	0.457312	0.000605	0.421417
94	C	0.465449	0.977604	0.322054
95	C	0.500915	0.987426	0.272912
96	C	0.510127	0.964673	0.172147
97	C	0.482965	0.928907	0.109227
98	C	0.479382	0.899656	0.195468
99	C	0.453451	0.864148	0.143989
100	C	0.448625	0.833188	0.230171
101	C	0.420478	0.801599	0.14722
102	C	0.404694	0.809524	0
103	S	0.422918	0.853588	0.960832
104	C	0.545922	0.975998	0.128141
105	C	0.572817	0.009591	0.182952
106	C	0.564492	0.032545	0.282494
107	C	0.591533	0.066215	0.337413
108	C	0.583391	0.089246	0.436425
109	C	0.547905	0.079637	0.483899
110	C	0.520344	0.045325	0.429264
111	C	0.52849	0.021684	0.328143
112	S	0.615992	0.203017	0.211987
113	H	0.542405	0.150133	0.895636
114	H	0.526004	0.129284	0.252109
115	H	0.60196	0.192228	0.610228
116	H	0.570017	0.140911	0.797467
117	H	0.495565	0.108339	0.705228
118	H	0.448391	0.049075	0.611892
119	H	0.429494	0.991709	0.456014
120	H	0.443445	0.951562	0.283589
121	H	0.466231	0.928326	0.991697
122	H	0.497069	0.902675	0.313953
123	H	0.464773	0.833217	0.349088
124	H	0.4126	0.774914	0.19422
125	H	0.553075	0.958727	0.049858
126	H	0.600393	0.017708	0.146659
127	H	0.619368	0.075048	0.303614
128	H	0.605448	0.115178	0.475771
129	C	0.808207	0.404486	0
130	C	0.836507	0.398545	0.014989
131	C	0.847846	0.401163	0.208929
132	C	0.828211	0.409471	0.33507
133	C	0.830431	0.414756	0.536846
134	C	0.859999	0.426222	0.64428
135	C	0.896505	0.436146	0.583066
136	C	0.908302	0.412185	0.628735
137	C	0.942297	0.419112	0.575201
138	C	0.965234	0.450157	0.475519
139	C	0.999282	0.456951	0.421417
140	C	0.022323	0.48787	0.322054
141	C	0.012248	0.513223	0.272912
142	C	0.035034	0.54496	0.172147
143	C	0.071104	0.553616	0.109227
144	C	0.100491	0.579142	0.195468
145	C	0.136294	0.588761	0.143989
146	C	0.167404	0.614755	0.230171
147	C	0.199287	0.618285	0.14722
148	C	0.191427	0.594779	0
149	S	0.147081	0.569026	0.960832
150	C	0.023449	0.569145	0.128141
151	C	0.989562	0.562384	0.182952
152	C	0.966569	0.531326	0.282494
153	C	0.932604	0.524634	0.337413
154	C	0.909532	0.493681	0.436425
155	C	0.919393	0.468095	0.483899
156	C	0.954005	0.474912	0.429264
157	C	0.97769	0.506475	0.328143
158	S	0.795119	0.412876	0.211987
159	H	0.848655	0.39258	0.895636
160	H	0.869684	0.397064	0.252109
161	H	0.806035	0.409706	0.610228
162	H	0.857746	0.429086	0.797467
163	H	0.890896	0.387744	0.705228
164	H	0.950675	0.399942	0.611892
165	H	0.00838	0.43825	0.456014
166	H	0.0486	0.491968	0.283589
167	H	0.071789	0.537625	0.991697
168	H	0.097354	0.593654	0.313953
169	H	0.167278	0.630715	0.349088
170	H	0.226124	0.637008	0.19422
171	H	0.040744	0.593393	0.049858
172	H	0.981246	0.581619	0.146659
173	H	0.923568	0.543414	0.303614
174	H	0.883365	0.489744	0.475771
