data_C78H36N12O6S6_2023-05-30_11:35:30
#******************************************
#
# CIF file created by Zeo++
# Zeo++ is an open source package to
# analyze microporous materials
#
#*******************************************

_cell_length_a		35.8219   
_cell_length_b		36.1205   
_cell_length_c		7   
_cell_angle_alpha		90   
_cell_angle_beta		90   
_cell_angle_gamma		119.639   

_symmetry_space_group_name_H-M		'P1'
_symmetry_Int_Tables_number		1
_symmetry_cell_setting		Monoclinic

loop_
_symmetry_equiv_pos_as_xyz
'+x,+y,+z'

loop_
_atom_site_label
_atom_site_type_symbol
_atom_site_fract_x
_atom_site_fract_y
_atom_site_fract_z
1	C	0.376581	0.67568	0.999995
2	O	0.4145	0.682308	0.999991
3	C	0.34239	0.631388	0.999998
4	C	0.349123	0.598741	0
5	N	0.391569	0.606376	0
6	C	0.298538	0.623527	3e-06
7	O	0.267807	0.585352	5e-06
8	C	0.287922	0.65759	6e-06
9	C	0.24757	0.64937	5e-06
10	N	0.214302	0.605935	0
11	C	0.323764	0.701527	4e-06
12	O	0.315322	0.730984	7e-06
13	C	0.368317	0.711363	0.999999
14	C	0.39991	0.751447	0.999998
15	N	0.393462	0.787028	0
16	H	0.322944	0.56696	1e-06
17	H	0.238999	0.673768	8e-06
18	H	0.431943	0.75717	0.999997
19	C	0.623419	0.32432	0.999995
20	O	0.5855	0.317692	0.999991
21	C	0.65761	0.368612	0.999998
22	C	0.650877	0.401259	0
23	N	0.608431	0.393624	0
24	C	0.701462	0.376473	3e-06
25	O	0.732193	0.414648	5e-06
26	C	0.712078	0.34241	6e-06
27	C	0.75243	0.35063	5e-06
28	N	0.785698	0.394065	0
29	C	0.676236	0.298473	4e-06
30	O	0.684678	0.269016	7e-06
31	C	0.631683	0.288637	0.999999
32	C	0.60009	0.248553	0.999998
33	N	0.606538	0.212972	0
34	H	0.677056	0.43304	1e-06
35	H	0.761001	0.326232	8e-06
36	H	0.568057	0.24283	0.999997
37	C	0.582457	0.419106	0
38	C	0.613669	0.461199	0.9945
39	C	0.609525	0.484182	0.151336
40	C	0.575265	0.458472	0.26831
41	C	0.560508	0.469954	0.442139
42	C	0.532695	0.487489	0.436859
43	C	0.516625	0.494455	0.265553
44	C	0.489485	0.51163	0.267012
45	C	0.477365	0.522526	0.439831
46	C	0.449707	0.540216	0.448075
47	C	0.430984	0.54775	0.276382
48	C	0.394256	0.519588	0.178477
49	C	0.386459	0.538933	0.016913
50	C	0.417543	0.580894	0
51	S	0.455492	0.597295	0.173021
52	C	0.438962	0.550421	0.624077
53	C	0.45592	0.542897	0.785587
54	N	0.482114	0.526124	0.782281
55	C	0.493289	0.515767	0.6137
56	C	0.520779	0.498238	0.612242
57	N	0.535808	0.491716	0.779459
58	C	0.562046	0.474987	0.779995
59	C	0.575277	0.463753	0.616809
60	S	0.548656	0.406832	0.18831
61	H	0.63823	0.475068	0.885341
62	H	0.630598	0.517886	0.176891
63	H	0.524955	0.486486	0.127977
64	H	0.47801	0.516467	0.130459
65	H	0.373956	0.486657	0.220586
66	H	0.359533	0.522713	0.920196
67	H	0.417895	0.563908	0.63516
68	H	0.448802	0.550227	0.926836
69	H	0.572396	0.470874	0.920366
70	H	0.596572	0.450494	0.625605
71	C	0.580228	0.161568	0
72	C	0.537711	0.150623	0.9945
73	C	0.514651	0.123711	0.151336
74	C	0.540729	0.11538	0.26831
75	C	0.529301	0.0894	0.442139
76	C	0.511885	0.044508	0.436859
77	C	0.505003	0.021713	0.265553
78	C	0.487944	0.977845	0.267012
79	C	0.477085	0.95505	0.439831
80	C	0.459512	0.910159	0.448075
81	C	0.452078	0.884178	0.276382
82	C	0.480639	0.875843	0.178477
83	C	0.46126	0.848933	0.016913
84	C	0.418876	0.837993	0
85	S	0.402123	0.85921	0.173021
86	C	0.449336	0.88941	0.624077
87	C	0.456774	0.913637	0.785587
88	N	0.473435	0.956171	0.782281
89	C	0.48376	0.977496	0.6137
90	C	0.501172	0.022063	0.612242
91	N	0.507615	0.043388	0.779459
92	C	0.524233	0.085923	0.779995
93	C	0.535423	0.110149	0.616809
94	S	0.592805	0.140352	0.18831
95	H	0.523599	0.161125	0.885341
96	H	0.480635	0.111076	0.176891
97	H	0.512949	0.037855	0.127977
98	H	0.483167	0.961702	0.130459
99	H	0.513872	0.888475	0.220586
100	H	0.477751	0.838429	0.920196
101	H	0.435939	0.855203	0.63516
102	H	0.44946	0.899326	0.926836
103	H	0.528291	0.100234	0.920366
104	H	0.548591	0.144356	0.625605
105	C	0.836648	0.418666	0
106	C	0.847952	0.387518	0.9945
107	C	0.875157	0.391447	0.151336
108	C	0.883338	0.425487	0.26831
109	C	0.909524	0.439986	0.442139
110	C	0.954753	0.467342	0.436859
111	C	0.977705	0.483172	0.265553
112	C	0.021903	0.509865	0.267012
113	C	0.044883	0.521763	0.439831
114	C	0.090114	0.548965	0.448075
115	C	0.116271	0.567412	0.276382
116	C	0.124438	0.603909	0.178477
117	C	0.151614	0.611474	0.016913
118	C	0.162913	0.580453	0
119	S	0.141718	0.542835	0.173021
120	C	0.111034	0.559509	0.624077
121	C	0.086639	0.542806	0.785587
122	N	0.043784	0.517044	0.782281
123	C	0.022284	0.506077	0.6137
124	C	0.977381	0.479039	0.612242
125	N	0.955909	0.464236	0.779459
126	C	0.913054	0.43843	0.779995
127	C	0.888632	0.425437	0.616809
128	S	0.857872	0.452156	0.18831
129	H	0.837503	0.363147	0.885341
130	H	0.888099	0.370378	0.176891
131	H	0.961429	0.474999	0.127977
132	H	0.038156	0.52117	0.130459
133	H	0.111505	0.624207	0.220586
134	H	0.162049	0.638198	0.920196
135	H	0.145498	0.580228	0.63516
136	H	0.10107	0.549787	0.926836
137	H	0.898646	0.428232	0.920366
138	H	0.85417	0.40449	0.625605
