data_C96H48N6O6S12_2023-05-15_09:02:44
#******************************************
#
# CIF file created by Zeo++
# Zeo++ is an open source package to
# analyze microporous materials
#
#*******************************************

_cell_length_a		48.7906   
_cell_length_b		49.089   
_cell_length_c		7   
_cell_angle_alpha		90   
_cell_angle_beta		90   
_cell_angle_gamma		119.734   

_symmetry_space_group_name_H-M		'P1'
_symmetry_Int_Tables_number		1
_symmetry_cell_setting		Monoclinic

loop_
_symmetry_equiv_pos_as_xyz
'+x,+y,+z'

loop_
_atom_site_label
_atom_site_type_symbol
_atom_site_fract_x
_atom_site_fract_y
_atom_site_fract_z
1	C	0.365099	0.673305	0.999995
2	O	0.392948	0.678187	0.999991
3	C	0.339933	0.640684	0.999998
4	C	0.34483	0.616639	0
5	N	0.376004	0.622262	0
6	C	0.307726	0.634893	3e-06
7	O	0.285109	0.606777	5e-06
8	C	0.29998	0.659981	6e-06
9	C	0.270342	0.653927	5e-06
10	N	0.245855	0.621937	0
11	C	0.326357	0.692342	4e-06
12	O	0.320201	0.714037	7e-06
13	C	0.359082	0.699586	0.999999
14	C	0.382335	0.729109	0.999998
15	N	0.377651	0.755315	0
16	H	0.325564	0.593231	1e-06
17	H	0.264084	0.671897	8e-06
18	H	0.405861	0.733324	0.999997
19	C	0.634901	0.326695	0.999995
20	O	0.607052	0.321813	0.999991
21	C	0.660067	0.359316	0.999998
22	C	0.65517	0.383361	0
23	N	0.623996	0.377738	0
24	C	0.692274	0.365107	3e-06
25	O	0.714891	0.393223	5e-06
26	C	0.70002	0.340019	6e-06
27	C	0.729658	0.346073	5e-06
28	N	0.754145	0.378063	0
29	C	0.673643	0.307658	4e-06
30	O	0.679799	0.285963	7e-06
31	C	0.640918	0.300414	0.999999
32	C	0.617665	0.270891	0.999998
33	N	0.622349	0.244685	0
34	H	0.674436	0.406769	1e-06
35	H	0.735916	0.328103	8e-06
36	H	0.594139	0.266676	0.999997
37	C	0.604962	0.396506	0
38	C	0.636356	0.418107	0.981225
39	S	0.642504	0.455494	0.992149
40	C	0.602823	0.442764	0.022163
41	C	0.591232	0.464708	0.042575
42	C	0.607983	0.497083	0.025215
43	C	0.588984	0.511328	0.055072
44	C	0.558051	0.489501	0.094389
45	C	0.531466	0.494694	0.13374
46	C	0.52486	0.49733	0.325776
47	C	0.500326	0.502662	0.373309
48	C	0.482203	0.505472	0.229119
49	C	0.487943	0.50304	0.033299
50	C	0.469593	0.505897	0.884429
51	C	0.442962	0.511014	0.923922
52	C	0.412078	0.489139	0.964013
53	C	0.393025	0.503304	0.994611
54	C	0.409665	0.535665	0.976457
55	C	0.398023	0.557561	0.997723
56	C	0.414	0.589628	0.963703
57	C	0.395038	0.603494	0
58	C	0.365221	0.58244	0.061367
59	S	0.360011	0.545404	0.073606
60	S	0.448556	0.548213	0.922236
61	C	0.476219	0.50329	0.692418
62	C	0.500762	0.497972	0.644881
63	C	0.518882	0.495156	0.789047
64	C	0.513134	0.497578	0.984854
65	S	0.552301	0.452226	0.095322
66	C	0.585582	0.410243	0.023437
67	H	0.656001	0.414006	0.961642
68	H	0.632941	0.510388	0.992275
69	H	0.597613	0.536327	0.047541
70	H	0.538974	0.495229	0.439065
71	H	0.495259	0.504674	0.522161
72	H	0.463225	0.509746	0.272296
73	H	0.403517	0.464147	0.97169
74	H	0.368099	0.489963	0.02829
75	H	0.438223	0.602549	0.91424
76	H	0.346228	0.586774	0.099016
77	H	0.462106	0.505381	0.579115
78	H	0.505817	0.49594	0.496004
79	H	0.537856	0.490874	0.745917
80	H	0.560152	0.39691	0.039907
81	C	0.602961	0.206825	0
82	C	0.581119	0.21646	0.981225
83	S	0.54357	0.185368	0.992149
84	C	0.556556	0.158695	0.022163
85	C	0.534598	0.125379	0.042575
86	C	0.502022	0.10978	0.025215
87	C	0.48783	0.076778	0.055072
88	C	0.509897	0.067826	0.094389
89	C	0.504828	0.036307	0.13374
90	C	0.502218	0.027137	0.325776
91	C	0.496999	0.997513	0.373309
92	C	0.494275	0.976753	0.229119
93	C	0.496685	0.984862	0.033299
94	C	0.493916	0.96383	0.884429
95	C	0.488924	0.932342	0.923922
96	C	0.511039	0.923486	0.964013
97	C	0.496927	0.890509	0.994611
98	C	0.464367	0.874817	0.976457
99	C	0.442457	0.841497	0.997723
100	C	0.410195	0.825439	0.963703
101	C	0.396382	0.792851	0
102	C	0.417667	0.784234	0.061367
103	S	0.454859	0.815908	0.073606
104	S	0.451568	0.900888	0.922236
105	C	0.496497	0.972992	0.692418
106	C	0.501703	0.002611	0.644881
107	C	0.504432	0.023374	0.789047
108	C	0.502032	0.015267	0.984854
109	S	0.547331	0.099202	0.095322
110	C	0.589281	0.173952	0.023437
111	H	0.585129	0.240013	0.961642
112	H	0.488538	0.121288	0.992275
113	H	0.462699	0.060466	0.047541
114	H	0.504251	0.043218	0.439065
115	H	0.495007	0.990489	0.522161
116	H	0.490088	0.95369	0.272296
117	H	0.536163	0.939859	0.97169
118	H	0.510448	0.879071	0.02829
119	H	0.397099	0.836599	0.91424
120	H	0.41342	0.761097	0.099016
121	H	0.494474	0.956922	0.579115
122	H	0.503715	0.009643	0.496004
123	H	0.508627	0.04644	0.745917
124	H	0.602795	0.162005	0.039907
125	C	0.791587	0.396182	0
126	C	0.782036	0.364947	0.981225
127	S	0.813435	0.358652	0.992149
128	C	0.840131	0.398056	0.022163
129	C	0.873679	0.409427	0.042575
130	C	0.889505	0.39265	0.025215
131	C	0.922696	0.411408	0.055072
132	C	0.931562	0.442187	0.094389
133	C	0.963216	0.468513	0.13374
134	C	0.972431	0.475047	0.325776
135	C	0.002185	0.499338	0.373309
136	C	0.023031	0.517288	0.229119
137	C	0.014881	0.511611	0.033299
138	C	0.036001	0.529786	0.884429
139	C	0.067624	0.556158	0.923922
140	C	0.076393	0.586889	0.964013
141	C	0.109558	0.6057	0.994611
142	C	0.125478	0.589032	0.976457
143	C	0.15903	0.600456	0.997723
144	C	0.175315	0.584447	0.963703
145	C	0.208089	0.603169	0
146	C	0.216622	0.632839	0.061367
147	S	0.18464	0.638201	0.073606
148	S	0.099386	0.550413	0.922236
149	C	0.026794	0.523231	0.692418
150	C	0.997045	0.498931	0.644881
151	C	0.976196	0.480984	0.789047
152	C	0.984343	0.486669	0.984854
153	S	0.899878	0.448086	0.095322
154	C	0.824647	0.41532	0.023437
155	H	0.75838	0.345494	0.961642
156	H	0.87803	0.367838	0.992275
157	H	0.939199	0.402721	0.047541
158	H	0.956284	0.461067	0.439065
159	H	0.009244	0.50435	0.522161
160	H	0.046197	0.536078	0.272296
161	H	0.059829	0.595508	0.97169
162	H	0.120963	0.630479	0.02829
163	H	0.164187	0.560366	0.91424
164	H	0.239862	0.651643	0.099016
165	H	0.04293	0.537211	0.579115
166	H	0.989978	0.493931	0.496004
167	H	0.953028	0.462199	0.745917
168	H	0.836562	0.440598	0.039907
