data_C120H60N6O6S18_2023-05-13_08:51:36
#******************************************
#
# CIF file created by Zeo++
# Zeo++ is an open source package to
# analyze microporous materials
#
#*******************************************

_cell_length_a		65.9965   
_cell_length_b		66.2949   
_cell_length_c		7   
_cell_angle_alpha		90   
_cell_angle_beta		90   
_cell_angle_gamma		119.803   

_symmetry_space_group_name_H-M		'P1'
_symmetry_Int_Tables_number		1
_symmetry_cell_setting		Monoclinic

loop_
_symmetry_equiv_pos_as_xyz
'+x,+y,+z'

loop_
_atom_site_label
_atom_site_type_symbol
_atom_site_fract_x
_atom_site_fract_y
_atom_site_fract_z
1	C	0.356824	0.671586	0.999995
2	O	0.377418	0.675203	0.999991
3	C	0.338186	0.647414	0.999998
4	C	0.341781	0.629597	0
5	N	0.364834	0.633764	0
6	C	0.314369	0.643123	3e-06
7	O	0.29762	0.62229	5e-06
8	C	0.308669	0.661713	6e-06
9	C	0.286751	0.657227	5e-06
10	N	0.268615	0.633523	0
11	C	0.328202	0.685692	4e-06
12	O	0.323674	0.701767	7e-06
13	C	0.352403	0.691059	0.999999
14	C	0.369624	0.712935	0.999998
15	N	0.366189	0.732353	0
16	H	0.327514	0.612253	1e-06
17	H	0.282143	0.670542	8e-06
18	H	0.387022	0.716058	0.999997
19	C	0.643176	0.328414	0.999995
20	O	0.622582	0.324797	0.999991
21	C	0.661814	0.352586	0.999998
22	C	0.658219	0.370403	0
23	N	0.635166	0.366236	0
24	C	0.685631	0.356877	3e-06
25	O	0.70238	0.37771	5e-06
26	C	0.691331	0.338287	6e-06
27	C	0.713249	0.342773	5e-06
28	N	0.731385	0.366477	0
29	C	0.671798	0.314308	4e-06
30	O	0.676326	0.298233	7e-06
31	C	0.647597	0.308941	0.999999
32	C	0.630376	0.287065	0.999998
33	N	0.633811	0.267647	0
34	H	0.672486	0.387747	1e-06
35	H	0.717857	0.329458	8e-06
36	H	0.612978	0.283942	0.999997
37	C	0.621114	0.380143	0
38	C	0.612725	0.388135	0.857481
39	C	0.600568	0.399082	0.934701
40	C	0.600109	0.399021	0.132959
41	C	0.589563	0.408642	0.258552
42	C	0.589554	0.409011	0.456167
43	C	0.57753	0.420114	0.532528
44	C	0.568575	0.428298	0.393075
45	C	0.555797	0.440632	0.423434
46	C	0.551073	0.447389	0.596877
47	C	0.538325	0.459466	0.578709
48	C	0.533421	0.461799	0.390961
49	C	0.520608	0.472967	0.315346
50	C	0.527767	0.486499	0.149324
51	C	0.515645	0.497373	0.081827
52	C	0.49603	0.495025	0.17903
53	C	0.483786	0.506009	0.113723
54	C	0.464294	0.50379	0.212491
55	C	0.451964	0.515502	0.140749
56	C	0.442695	0.514159	0.961729
57	C	0.432264	0.52845	0.944033
58	C	0.434132	0.540846	0.108557
59	C	0.425851	0.557131	0.140916
60	C	0.42604	0.568092	0.309087
61	C	0.416314	0.582976	0.288785
62	C	0.408899	0.583379	0.104954
63	C	0.398224	0.596394	0.032629
64	C	0.394676	0.600234	0.843847
65	C	0.383448	0.613815	0.824768
66	C	0.378886	0.619857	0
67	S	0.387768	0.609659	0.184096
68	S	0.413984	0.565512	0.960479
69	S	0.448261	0.534362	0.28418
70	C	0.456901	0.490138	0.378008
71	C	0.468875	0.479075	0.444398
72	C	0.488529	0.481425	0.346696
73	C	0.500906	0.470582	0.412618
74	S	0.544121	0.448902	0.241176
75	S	0.574759	0.421854	0.170638
76	S	0.614577	0.385349	0.221348
77	H	0.615074	0.386442	0.706362
78	H	0.592606	0.406684	0.846584
79	H	0.597806	0.401722	0.544853
80	H	0.57579	0.421972	0.684331
81	H	0.556546	0.444041	0.732868
82	H	0.533149	0.466214	0.69823
83	H	0.543078	0.489033	0.071213
84	H	0.521875	0.507908	0.952809
85	H	0.489694	0.516699	0.985962
86	H	0.44314	0.503254	0.848127
87	H	0.423872	0.529481	0.814378
88	H	0.432784	0.565696	0.443211
89	H	0.414993	0.592884	0.405945
90	H	0.399887	0.593689	0.722705
91	H	0.379108	0.618701	0.68975
92	H	0.44173	0.487937	0.456928
93	H	0.462669	0.468592	0.573724
94	H	0.494973	0.460026	0.541906
95	C	0.61944	0.239594	0
96	C	0.611461	0.223299	0.857481
97	C	0.600534	0.200317	0.934701
98	C	0.600598	0.199922	0.132959
99	C	0.590994	0.179861	0.258552
100	C	0.590624	0.179485	0.456167
101	C	0.57954	0.156479	0.532528
102	C	0.571371	0.139431	0.393075
103	C	0.559055	0.114449	0.423434
104	C	0.5523	0.103025	0.596877
105	C	0.540243	0.078332	0.578709
106	C	0.537924	0.071135	0.390961
107	C	0.526778	0.047281	0.315346
108	C	0.513183	0.040915	0.149324
109	C	0.50233	0.018041	0.081827
110	C	0.504761	0.000891	0.17903
111	C	0.493797	0.977785	0.113723
112	C	0.496099	0.96063	0.212491
113	C	0.484406	0.936714	0.140749
114	C	0.485789	0.928843	0.961729
115	C	0.471503	0.904244	0.944033
116	C	0.459069	0.893753	0.108557
117	C	0.442775	0.869305	0.140916
118	C	0.431785	0.858575	0.309087
119	C	0.416902	0.834087	0.288785
120	C	0.416527	0.826319	0.104954
121	C	0.403521	0.802748	0.032629
122	C	0.399686	0.795399	0.843847
123	C	0.386114	0.770716	0.824768
124	C	0.380075	0.760166	0
125	S	0.390264	0.779149	0.184096
126	S	0.434419	0.849167	0.960479
127	S	0.465512	0.914249	0.28418
128	C	0.509815	0.966883	0.378008
129	C	0.520859	0.989798	0.444398
130	C	0.518425	0.006984	0.346696
131	C	0.529246	0.030082	0.412618
132	S	0.55081	0.094611	0.241176
133	S	0.577807	0.151993	0.170638
134	S	0.614247	0.227914	0.221348
135	H	0.613148	0.227318	0.706362
136	H	0.592944	0.184834	0.846584
137	H	0.597898	0.194942	0.544853
138	H	0.577684	0.1529	0.684331
139	H	0.555635	0.111798	0.732868
140	H	0.533498	0.066466	0.69823
141	H	0.510582	0.053603	0.071213
142	H	0.491742	0.013736	0.952809
143	H	0.483057	0.973008	0.985962
144	H	0.49672	0.940146	0.848127
145	H	0.470503	0.89488	0.814378
146	H	0.434161	0.867663	0.443211
147	H	0.406974	0.822906	0.405945
148	H	0.406227	0.807096	0.722705
149	H	0.381233	0.761538	0.68975
150	H	0.512082	0.954002	0.456928
151	H	0.531393	0.994074	0.573724
152	H	0.539853	0.034701	0.541906
153	C	0.759084	0.379903	0
154	C	0.775451	0.388205	0.857481
155	C	0.798535	0.400241	0.934701
156	C	0.79893	0.400697	0.132959
157	C	0.819081	0.411137	0.258552
158	C	0.81946	0.411144	0.456167
159	C	0.842568	0.423047	0.532528
160	C	0.859692	0.431911	0.393075
161	C	0.884785	0.444558	0.423434
162	C	0.896265	0.449225	0.596877
163	C	0.921069	0.461842	0.578709
164	C	0.928293	0.466705	0.390961
165	C	0.952252	0.479392	0.315346
166	C	0.958688	0.472226	0.149324
167	C	0.981663	0.484226	0.081827
168	C	0.998846	0.503724	0.17903
169	C	0.022055	0.515845	0.113723
170	C	0.039244	0.53522	0.212491
171	C	0.063267	0.547424	0.140749
172	C	0.071153	0.556638	0.961729
173	C	0.095871	0.566946	0.944033
174	C	0.106437	0.565041	0.108557
175	C	0.131012	0.573204	0.140916
176	C	0.141812	0.572972	0.309087
177	C	0.166422	0.582577	0.288785
178	C	0.174211	0.589942	0.104954
179	C	0.197893	0.600497	0.032629
180	C	0.205276	0.604007	0.843847
181	C	0.230076	0.615108	0.824768
182	C	0.240676	0.619617	0
183	S	0.221605	0.610832	0.184096
184	S	0.151234	0.58496	0.960479
185	S	0.085864	0.551028	0.28418
186	C	0.032922	0.542619	0.378008
187	C	0.009904	0.530766	0.444398
188	C	0.992684	0.51123	0.346696
189	C	0.969485	0.498976	0.412618
190	S	0.904706	0.456126	0.241176
191	S	0.847072	0.425793	0.170638
192	S	0.770814	0.386377	0.221348
193	H	0.771415	0.385879	0.706362
194	H	0.814088	0.408122	0.846584
195	H	0.803934	0.402975	0.544853
196	H	0.846163	0.424768	0.684331
197	H	0.887457	0.443801	0.732868
198	H	0.932991	0.466959	0.69823
199	H	0.945977	0.457003	0.071213
200	H	0.98602	0.477995	0.952809
201	H	0.026886	0.509933	0.985962
202	H	0.059778	0.556239	0.848127
203	H	0.105263	0.575279	0.814378
204	H	0.132693	0.566281	0.443211
205	H	0.177671	0.58385	0.405945
206	H	0.193524	0.598855	0.722705
207	H	0.239296	0.6194	0.68975
208	H	0.045826	0.557701	0.456928
209	H	0.005576	0.536974	0.573724
210	H	0.964812	0.504912	0.541906
