data_C72H36N12O6S6_2023-05-12_19:28:09
#******************************************
#
# CIF file created by Zeo++
# Zeo++ is an open source package to
# analyze microporous materials
#
#*******************************************

_cell_length_a		40.5208   
_cell_length_b		40.8194   
_cell_length_c		7   
_cell_angle_alpha		90   
_cell_angle_beta		90   
_cell_angle_gamma		119.681   

_symmetry_space_group_name_H-M		'P1'
_symmetry_Int_Tables_number		1
_symmetry_cell_setting		Monoclinic

loop_
_symmetry_equiv_pos_as_xyz
'+x,+y,+z'

loop_
_atom_site_label
_atom_site_type_symbol
_atom_site_fract_x
_atom_site_fract_y
_atom_site_fract_z
1	C	0.371572	0.674646	0.999995
2	O	0.405099	0.680513	0.999991
3	C	0.341314	0.635437	0.999998
4	C	0.347241	0.606536	0
5	N	0.384771	0.613294	0
6	C	0.302541	0.628477	3e-06
7	O	0.275345	0.594683	5e-06
8	C	0.293182	0.658631	6e-06
9	C	0.257503	0.651354	5e-06
10	N	0.22806	0.612904	0
11	C	0.324899	0.697527	4e-06
12	O	0.317458	0.723604	7e-06
13	C	0.364294	0.706234	0.999999
14	C	0.392253	0.741718	0.999998
15	N	0.386579	0.773217	0
16	H	0.324075	0.578401	1e-06
17	H	0.249944	0.672953	8e-06
18	H	0.420576	0.746785	0.999997
19	C	0.628428	0.325354	0.999995
20	O	0.594901	0.319487	0.999991
21	C	0.658686	0.364563	0.999998
22	C	0.652759	0.393464	0
23	N	0.615229	0.386706	0
24	C	0.697459	0.371523	3e-06
25	O	0.724655	0.405317	5e-06
26	C	0.706818	0.341369	6e-06
27	C	0.742497	0.348646	5e-06
28	N	0.77194	0.387096	0
29	C	0.675101	0.302473	4e-06
30	O	0.682542	0.276396	7e-06
31	C	0.635706	0.293766	0.999999
32	C	0.607747	0.258282	0.999998
33	N	0.613421	0.226783	0
34	H	0.675925	0.421599	1e-06
35	H	0.750056	0.327047	8e-06
36	H	0.579424	0.253215	0.999997
37	C	0.592286	0.409264	0
38	C	0.598629	0.403019	0.184893
39	S	0.579867	0.42146	0.341265
40	C	0.562898	0.438154	0.160999
41	C	0.542043	0.45866	0.204841
42	C	0.53498	0.465606	0.391515
43	C	0.51538	0.484877	0.420347
44	N	0.502435	0.497603	0.277935
45	C	0.508768	0.491374	0.094598
46	C	0.493633	0.506253	0.943425
47	C	0.49752	0.50243	0.747877
48	C	0.48241	0.517285	0.617644
49	C	0.463641	0.53574	0.684161
50	C	0.460468	0.538861	0.879962
51	C	0.440963	0.558041	0.962234
52	C	0.423319	0.575394	0.870252
53	C	0.407714	0.590736	0
54	C	0.413286	0.585253	0.187465
55	S	0.437692	0.561253	0.207116
56	N	0.475157	0.524421	0.006303
57	C	0.528471	0.472001	0.05602
58	C	0.57202	0.429192	0.984442
59	H	0.61324	0.38865	0.236535
60	H	0.544237	0.456507	0.515903
61	H	0.509351	0.490806	0.563442
62	H	0.512019	0.488173	0.692492
63	H	0.485278	0.514464	0.465057
64	H	0.451914	0.547269	0.582642
65	H	0.421672	0.577017	0.716542
66	H	0.404408	0.593981	0.31404
67	H	0.533372	0.46718	0.909448
68	H	0.564544	0.43655	0.849039
69	C	0.590125	0.181277	0
70	C	0.596355	0.19376	0.184893
71	S	0.577958	0.156871	0.341265
72	C	0.561303	0.123493	0.160999
73	C	0.540847	0.082482	0.204841
74	C	0.533917	0.068592	0.391515
75	C	0.514691	0.03005	0.420347
76	N	0.501996	0.004597	0.277935
77	C	0.50821	0.017053	0.094598
78	C	0.493366	0.987292	0.943425
79	C	0.49718	0.994937	0.747877
80	C	0.482361	0.965226	0.617644
81	C	0.463949	0.928316	0.684161
82	C	0.460835	0.922076	0.879962
83	C	0.441701	0.883718	0.962234
84	C	0.42439	0.849018	0.870252
85	C	0.409084	0.818333	0
86	C	0.414554	0.829295	0.187465
87	S	0.438497	0.877291	0.207116
88	N	0.475242	0.950959	0.006303
89	C	0.527537	0.055798	0.05602
90	C	0.570244	0.141424	0.984442
91	H	0.61069	0.222493	0.236535
92	H	0.542994	0.086792	0.515903
93	H	0.508776	0.018193	0.563442
94	H	0.511403	0.02345	0.692492
95	H	0.485175	0.970867	0.465057
96	H	0.452448	0.905258	0.582642
97	H	0.422771	0.845776	0.716542
98	H	0.405847	0.811838	0.31404
99	H	0.532346	0.065437	0.909448
100	H	0.562903	0.126715	0.849039
101	C	0.816999	0.408874	0
102	C	0.804425	0.402637	0.184893
103	S	0.841585	0.421084	0.341265
104	C	0.875209	0.437768	0.160999
105	C	0.916521	0.458274	0.204841
106	C	0.930513	0.465218	0.391515
107	C	0.969339	0.484489	0.420347
108	N	0.994979	0.497216	0.277935
109	C	0.982431	0.490989	0.094598
110	C	0.012411	0.50587	0.943425
111	C	0.00471	0.502049	0.747877
112	C	0.034639	0.516905	0.617644
113	C	0.07182	0.535359	0.684161
114	C	0.078106	0.538478	0.879962
115	C	0.116746	0.557656	0.962234
116	C	0.151701	0.575003	0.870252
117	C	0.182612	0.590346	0
118	C	0.17157	0.584868	0.187465
119	S	0.123221	0.560872	0.207116
120	N	0.049011	0.524036	0.006303
121	C	0.943402	0.471617	0.05602
122	C	0.857146	0.428799	0.984442
123	H	0.775481	0.388272	0.236535
124	H	0.912179	0.456117	0.515903
125	H	0.981283	0.490416	0.563442
126	H	0.975988	0.487793	0.692492
127	H	0.028957	0.514085	0.465057
128	H	0.095048	0.546889	0.582642
129	H	0.154967	0.576623	0.716542
130	H	0.189155	0.593597	0.31404
131	H	0.933691	0.466798	0.909448
132	H	0.871963	0.43615	0.849039
