data_C120H60N6O6S18_2023-05-15_14:19:47
#******************************************
#
# CIF file created by Zeo++
# Zeo++ is an open source package to
# analyze microporous materials
#
#*******************************************

_cell_length_a		63.2612   
_cell_length_b		63.5596   
_cell_length_c		7   
_cell_angle_alpha		90   
_cell_angle_beta		90   
_cell_angle_gamma		119.795   

_symmetry_space_group_name_H-M		'P1'
_symmetry_Int_Tables_number		1
_symmetry_cell_setting		Monoclinic

loop_
_symmetry_equiv_pos_as_xyz
'+x,+y,+z'

loop_
_atom_site_label
_atom_site_type_symbol
_atom_site_fract_x
_atom_site_fract_y
_atom_site_fract_z
1	C	0.357839	0.671797	0.999995
2	O	0.379323	0.675569	0.999991
3	C	0.338399	0.646587	0.999998
4	C	0.342153	0.628005	0
5	N	0.366202	0.63235	0
6	C	0.313554	0.642112	3e-06
7	O	0.296083	0.620384	5e-06
8	C	0.307603	0.6615	6e-06
9	C	0.284739	0.656822	5e-06
10	N	0.265823	0.6321	0
11	C	0.327977	0.686509	4e-06
12	O	0.32325	0.703275	7e-06
13	C	0.353224	0.692107	0.999999
14	C	0.371185	0.714922	0.999998
15	N	0.367598	0.735174	0
16	H	0.327272	0.609916	1e-06
17	H	0.279929	0.670708	8e-06
18	H	0.389334	0.718179	0.999997
19	C	0.642161	0.328203	0.999995
20	O	0.620677	0.324431	0.999991
21	C	0.661601	0.353413	0.999998
22	C	0.657847	0.371995	0
23	N	0.633798	0.36765	0
24	C	0.686446	0.357888	3e-06
25	O	0.703917	0.379616	5e-06
26	C	0.692397	0.3385	6e-06
27	C	0.715261	0.343178	5e-06
28	N	0.734177	0.3679	0
29	C	0.672023	0.313491	4e-06
30	O	0.67675	0.296725	7e-06
31	C	0.646776	0.307893	0.999999
32	C	0.628815	0.285078	0.999998
33	N	0.632402	0.264826	0
34	H	0.672728	0.390084	1e-06
35	H	0.720071	0.329292	8e-06
36	H	0.610666	0.281821	0.999997
37	C	0.380864	0.617847	0
38	C	0.393006	0.615078	0.151088
39	C	0.405536	0.602592	0.094395
40	C	0.402498	0.596305	0.902382
41	C	0.412471	0.583607	0.796509
42	C	0.409904	0.57784	0.604236
43	C	0.422274	0.565184	0.548534
44	C	0.434116	0.561325	0.698822
45	C	0.448413	0.549255	0.689606
46	C	0.458573	0.545445	0.527485
47	C	0.471494	0.532833	0.565866
48	C	0.471077	0.527244	0.756924
49	C	0.481997	0.514244	0.850672
50	C	0.47966	0.493134	0.767952
51	C	0.490157	0.480663	0.853927
52	C	0.50334	0.489058	0.024653
53	C	0.51403	0.476728	0.112707
54	C	0.527301	0.485194	0.283195
55	C	0.538326	0.472263	0.376405
56	C	0.537933	0.466596	0.567316
57	C	0.55101	0.454127	0.60509
58	C	0.561216	0.450488	0.442582
59	C	0.5757	0.438651	0.432588
60	C	0.589158	0.436508	0.579058
61	C	0.601236	0.423563	0.523598
62	C	0.596807	0.415884	0.335561
63	C	0.60616	0.402182	0.236319
64	C	0.616746	0.389797	0.31894
65	C	0.624247	0.378153	0.182056
66	C	0.619136	0.382153	0
67	S	0.605718	0.399424	0.991141
68	S	0.577868	0.424619	0.230428
69	S	0.554873	0.462619	0.246563
70	C	0.529619	0.506288	0.366057
71	C	0.519097	0.518743	0.2802
72	C	0.505902	0.510341	0.109498
73	C	0.495233	0.522684	0.021322
74	S	0.454668	0.537105	0.88613
75	S	0.430029	0.573398	0.905248
76	S	0.384222	0.605876	0.794437
77	H	0.393083	0.621509	0.294487
78	H	0.416299	0.598508	0.192097
79	H	0.399609	0.582381	0.505283
80	H	0.422205	0.559124	0.403791
81	H	0.457064	0.551538	0.386261
82	H	0.480834	0.528284	0.457867
83	H	0.469432	0.486019	0.636169
84	H	0.487935	0.464282	0.786041
85	H	0.511799	0.460198	0.047577
86	H	0.528504	0.470995	0.675562
87	H	0.552586	0.447983	0.745919
88	H	0.590576	0.444036	0.720412
89	H	0.61276	0.420266	0.618988
90	H	0.618987	0.388893	0.471599
91	H	0.632817	0.36754	0.217138
92	H	0.539875	0.513416	0.497702
93	H	0.521349	0.53514	0.347934
94	H	0.497489	0.539232	0.086391
95	C	0.382079	0.764182	0
96	C	0.384806	0.778999	0.151088
97	C	0.397272	0.803879	0.094395
98	C	0.403589	0.807123	0.902382
99	C	0.41628	0.829674	0.796509
100	C	0.422072	0.832867	0.604236
101	C	0.434711	0.857758	0.548534
102	C	0.438531	0.873363	0.698822
103	C	0.450574	0.899583	0.689606
104	C	0.454352	0.91347	0.527485
105	C	0.466944	0.938863	0.565866
106	C	0.47255	0.944015	0.756924
107	C	0.485539	0.967808	0.850672
108	C	0.506715	0.986509	0.767952
109	C	0.519175	0.009355	0.853927
110	C	0.510705	0.014089	0.024653
111	C	0.523022	0.036986	0.112707
112	C	0.51448	0.041738	0.283195
113	C	0.5274	0.065566	0.376405
114	C	0.533083	0.070818	0.567316
115	C	0.545531	0.096225	0.60509
116	C	0.549138	0.109986	0.442582
117	C	0.560946	0.136161	0.432588
118	C	0.56304	0.151662	0.579058
119	C	0.575969	0.17655	0.523598
120	C	0.583687	0.179799	0.335561
121	C	0.597387	0.202734	0.236319
122	C	0.60976	0.225582	0.31894
123	C	0.621404	0.244629	0.182056
124	C	0.617414	0.235568	0
125	S	0.600153	0.205041	0.991141
126	S	0.575007	0.152288	0.230428
127	S	0.537001	0.091605	0.246563
128	C	0.49332	0.023031	0.366057
129	C	0.480875	0.000177	0.2802
130	C	0.489354	0.995439	0.109498
131	C	0.477023	0.97255	0.021322
132	S	0.46273	0.917897	0.88613
133	S	0.426443	0.857281	0.905248
134	S	0.394068	0.779438	0.794437
135	H	0.378357	0.772671	0.294487
136	H	0.401323	0.818637	0.192097
137	H	0.417562	0.81812	0.505283
138	H	0.440787	0.863724	0.403791
139	H	0.448249	0.905903	0.386261
140	H	0.471467	0.95267	0.457867
141	H	0.513892	0.983437	0.636169
142	H	0.535609	0.023462	0.786041
143	H	0.539606	0.051232	0.047577
144	H	0.528712	0.057072	0.675562
145	H	0.551685	0.10391	0.745919
146	H	0.555486	0.145574	0.720412
147	H	0.579227	0.191279	0.618988
148	H	0.610657	0.228708	0.471599
149	H	0.63201	0.26371	0.217138
150	H	0.486131	0.02612	0.497702
151	H	0.464426	0.986085	0.347934
152	H	0.460421	0.958311	0.086391
153	C	0.236678	0.617596	0
154	C	0.221811	0.605548	0.151088
155	C	0.196813	0.593153	0.094395
156	C	0.193534	0.596196	0.902382
157	C	0.170871	0.586344	0.796509
158	C	0.167646	0.588917	0.604236
159	C	0.142637	0.576683	0.548534
160	C	0.126975	0.564936	0.698822
161	C	0.100635	0.550786	0.689606
162	C	0.086696	0.540709	0.527485
163	C	0.061184	0.527928	0.565866
164	C	0.055995	0.528365	0.756924
165	C	0.032085	0.517572	0.850672
166	C	0.013248	0.519981	0.767952
167	C	0.99029	0.509606	0.853927
168	C	0.985577	0.496477	0.024653
169	C	0.962569	0.48591	0.112707
170	C	0.95784	0.472693	0.283195
171	C	0.933896	0.461796	0.376405
172	C	0.928606	0.46221	0.567316
173	C	0.903081	0.449272	0.60509
174	C	0.889268	0.43915	0.442582
175	C	0.862975	0.424812	0.432588
176	C	0.847424	0.411454	0.579058
177	C	0.822417	0.399511	0.523598
178	C	0.819128	0.403942	0.335561
179	C	0.796076	0.394709	0.236319
180	C	0.773116	0.384245	0.31894
181	C	0.75397	0.376842	0.182056
182	C	0.763072	0.381903	0
183	S	0.793751	0.395159	0.991141
184	S	0.846747	0.422717	0.230428
185	S	0.907748	0.4454	0.246563
186	C	0.976684	0.470305	0.366057
187	C	0.99965	0.480704	0.2802
188	C	0.004365	0.493844	0.109498
189	C	0.027366	0.50439	0.021322
190	S	0.082223	0.544622	0.88613
191	S	0.14315	0.568946	0.905248
192	S	0.221332	0.614311	0.794437
193	H	0.228182	0.605444	0.294487
194	H	0.182	0.582479	0.192097
195	H	0.182451	0.599123	0.505283
196	H	0.13663	0.576776	0.403791
197	H	0.094309	0.542184	0.386261
198	H	0.047322	0.51867	0.457867
199	H	0.016298	0.530169	0.636169
200	H	0.976077	0.51188	0.786041
201	H	0.948217	0.488194	0.047577
202	H	0.942406	0.471557	0.675562
203	H	0.89535	0.447732	0.745919
204	H	0.85356	0.410015	0.720412
205	H	0.807635	0.388078	0.618988
206	H	0.769978	0.382023	0.471599
207	H	0.734795	0.368374	0.217138
208	H	0.973616	0.460088	0.497702
209	H	0.013847	0.478399	0.347934
210	H	0.041711	0.502081	0.086391
