data_C120H60N12O6S18_2023-05-15_14:08:01
#******************************************
#
# CIF file created by Zeo++
# Zeo++ is an open source package to
# analyze microporous materials
#
#*******************************************

_cell_length_a		62.0219   
_cell_length_b		62.3203   
_cell_length_c		7   
_cell_angle_alpha		90   
_cell_angle_beta		90   
_cell_angle_gamma		119.791   

_symmetry_space_group_name_H-M		'P1'
_symmetry_Int_Tables_number		1
_symmetry_cell_setting		Monoclinic

loop_
_symmetry_equiv_pos_as_xyz
'+x,+y,+z'

loop_
_atom_site_label
_atom_site_type_symbol
_atom_site_fract_x
_atom_site_fract_y
_atom_site_fract_z
1	C	0.358328	0.671899	0.999995
2	O	0.380241	0.675746	0.999991
3	C	0.338502	0.646189	0.999998
4	C	0.342332	0.627238	0
5	N	0.366861	0.63167	0
6	C	0.31316	0.641625	3e-06
7	O	0.295343	0.619466	5e-06
8	C	0.307089	0.661398	6e-06
9	C	0.283769	0.656626	5e-06
10	N	0.264477	0.631414	0
11	C	0.327868	0.686902	4e-06
12	O	0.323045	0.704001	7e-06
13	C	0.353619	0.692612	0.999999
14	C	0.371937	0.715879	0.999998
15	N	0.368276	0.736533	0
16	H	0.327156	0.60879	1e-06
17	H	0.278862	0.670789	8e-06
18	H	0.390449	0.719202	0.999997
19	C	0.641672	0.328101	0.999995
20	O	0.619759	0.324254	0.999991
21	C	0.661498	0.353811	0.999998
22	C	0.657668	0.372762	0
23	N	0.633139	0.36833	0
24	C	0.68684	0.358375	3e-06
25	O	0.704657	0.380534	5e-06
26	C	0.692911	0.338602	6e-06
27	C	0.716231	0.343374	5e-06
28	N	0.735523	0.368586	0
29	C	0.672132	0.313098	4e-06
30	O	0.676955	0.295999	7e-06
31	C	0.646381	0.307388	0.999999
32	C	0.628063	0.284121	0.999998
33	N	0.631724	0.263467	0
34	H	0.672844	0.39121	1e-06
35	H	0.721138	0.329211	8e-06
36	H	0.609551	0.280798	0.999997
37	C	0.618182	0.383122	0
38	C	0.633187	0.38104	0.13343
39	C	0.630292	0.389541	0.315948
40	C	0.613255	0.397824	0.314475
41	C	0.605954	0.407295	0.476038
42	C	0.608207	0.403049	0.666902
43	C	0.599505	0.415232	0.791492
44	C	0.590711	0.428666	0.694557
45	C	0.580814	0.443209	0.779155
46	C	0.583889	0.451457	0.966091
47	C	0.571558	0.46512	0.005848
48	C	0.559277	0.467174	0.848445
49	C	0.544308	0.479358	0.833964
50	C	0.54606	0.494296	0.67914
51	C	0.531605	0.505753	0.674871
52	C	0.515539	0.502122	0.826437
53	C	0.499784	0.513607	0.828629
54	C	0.481005	0.507389	0.694106
55	C	0.46668	0.518975	0.701612
56	C	0.471258	0.536633	0.842489
57	C	0.456651	0.549185	0.859248
58	C	0.44765	0.554514	0.022208
59	C	0.434473	0.567338	0.982001
60	C	0.433652	0.571723	0.789054
61	C	0.421945	0.58446	0.701819
62	C	0.4146	0.599436	0.793465
63	C	0.4035	0.60916	0.66724
64	C	0.402532	0.60156	0.480402
65	C	0.392355	0.608032	0.318492
66	C	0.375385	0.616391	0.324785
67	C	0.369228	0.621485	0.140018
68	C	0.381818	0.616878	0
69	S	0.400581	0.606646	0.085638
70	S	0.414958	0.582451	0.46299
71	S	0.449146	0.560115	0.660305
72	C	0.49041	0.541634	0.970335
73	N	0.504699	0.530785	0.966393
74	N	0.513371	0.48757	0.977971
75	C	0.527712	0.476785	0.978259
76	S	0.562802	0.452306	0.6553
77	S	0.593361	0.426204	0.452554
78	S	0.600974	0.394972	0.089091
79	H	0.645587	0.373894	0.104015
80	H	0.640475	0.389652	0.442057
81	H	0.615608	0.391552	0.716981
82	H	0.599639	0.413915	0.945743
83	H	0.594629	0.448046	0.071478
84	H	0.571923	0.473182	0.143906
85	H	0.558802	0.497437	0.561778
86	H	0.533153	0.517571	0.555494
87	H	0.477283	0.49349	0.585781
88	H	0.451837	0.513813	0.597939
89	H	0.450147	0.549303	0.164769
90	H	0.425908	0.572904	0.091526
91	H	0.417141	0.603549	0.944812
92	H	0.39678	0.621389	0.713111
93	H	0.36749	0.618686	0.456033
94	H	0.356331	0.628118	0.11365
95	H	0.495249	0.555172	0.083982
96	H	0.525143	0.465399	0.103282
97	C	0.616439	0.233628	0
98	C	0.618463	0.250604	0.13343
99	C	0.609951	0.239262	0.315948
100	C	0.601718	0.214095	0.314475
101	C	0.592252	0.197414	0.476038
102	C	0.5965	0.203878	0.666902
103	C	0.584321	0.183105	0.791492
104	C	0.570887	0.160994	0.694557
105	C	0.556346	0.136682	0.779155
106	C	0.548063	0.131523	0.966091
107	C	0.534415	0.105672	0.005848
108	C	0.532407	0.09143	0.848445
109	C	0.520254	0.064431	0.833964
110	C	0.505268	0.051296	0.67914
111	C	0.49384	0.02553	0.674871
112	C	0.497549	0.013192	0.826437
113	C	0.486099	0.986108	0.828629
114	C	0.492413	0.97365	0.694106
115	C	0.480856	0.947886	0.701612
116	C	0.463131	0.934849	0.842489
117	C	0.450606	0.907844	0.859248
118	C	0.445301	0.893598	0.022208
119	C	0.432498	0.867742	0.982001
120	C	0.428104	0.862559	0.789054
121	C	0.415382	0.838249	0.701819
122	C	0.400396	0.816042	0.793465
123	C	0.390692	0.795334	0.66724
124	C	0.398317	0.801941	0.480402
125	C	0.39187	0.78539	0.318492
126	C	0.38356	0.760213	0.324785
127	C	0.378478	0.749025	0.140018
128	C	0.383045	0.766117	0
129	S	0.393225	0.794939	0.085638
130	S	0.417425	0.833311	0.46299
131	S	0.439678	0.889505	0.660305
132	C	0.458036	0.94889	0.970335
133	N	0.468854	0.973884	0.966393
134	N	0.512149	0.025529	0.977971
135	C	0.522903	0.050512	0.978259
136	S	0.547301	0.109736	0.6553
137	S	0.573344	0.166077	0.452554
138	S	0.604629	0.204738	0.089091
139	H	0.625576	0.270034	0.104015
140	H	0.609797	0.249265	0.442057
141	H	0.607997	0.222677	0.716981
142	H	0.585641	0.18455	0.945743
143	H	0.551438	0.145586	0.071478
144	H	0.52633	0.098007	0.143906
145	H	0.502065	0.060822	0.561778
146	H	0.481984	0.0153	0.555494
147	H	0.506365	0.983794	0.585781
148	H	0.486094	0.938286	0.597939
149	H	0.450515	0.901266	0.164769
150	H	0.426952	0.853692	0.091526
151	H	0.396261	0.814469	0.944812
152	H	0.378459	0.776484	0.713111
153	H	0.381292	0.750086	0.456033
154	H	0.371882	0.729613	0.11365
155	H	0.444441	0.940214	0.083982
156	H	0.534331	0.059298	0.103282
157	C	0.764994	0.382867	0
158	C	0.747964	0.367973	0.13343
159	C	0.759372	0.370813	0.315948
160	C	0.784642	0.387698	0.314475
161	C	0.801408	0.394909	0.476038
162	C	0.794908	0.39269	0.666902
163	C	0.815789	0.40128	0.791492
164	C	0.838016	0.409957	0.694557
165	C	0.862454	0.419725	0.779155
166	C	0.867663	0.416636	0.966091
167	C	0.893641	0.428825	0.005848
168	C	0.90793	0.441013	0.848445
169	C	0.935053	0.455828	0.833964
170	C	0.948286	0.454025	0.67914
171	C	0.97417	0.468333	0.674871
172	C	0.986526	0.484303	0.826437
173	C	0.013732	0.499902	0.828629
174	C	0.026196	0.518577	0.694106
175	C	0.052079	0.532756	0.701612
176	C	0.065226	0.528135	0.842489
177	C	0.092356	0.542588	0.859248
178	C	0.106663	0.551505	0.022208
179	C	0.132643	0.564537	0.982001
180	C	0.137858	0.565334	0.789054
181	C	0.162288	0.576907	0.701819
182	C	0.184618	0.584139	0.793465
183	C	0.205423	0.595122	0.66724
184	C	0.198765	0.596115	0.480402
185	C	0.215389	0.606195	0.318492
186	C	0.240669	0.623013	0.324785
187	C	0.251908	0.629106	0.140018
188	C	0.234751	0.616622	0
189	S	0.205808	0.598031	0.085638
190	S	0.167231	0.583855	0.46299
191	S	0.11079	0.549996	0.660305
192	C	0.051168	0.509093	0.970335
193	N	0.026061	0.494948	0.966393
194	N	0.974094	0.486518	0.977971
195	C	0.948999	0.47232	0.978259
196	S	0.889512	0.437575	0.6553
197	S	0.832909	0.407335	0.452554
198	S	0.794011	0.399906	0.089091
199	H	0.728451	0.355689	0.104015
200	H	0.749342	0.3607	0.442057
201	H	0.77601	0.385388	0.716981
202	H	0.814334	0.401152	0.945743
203	H	0.853548	0.405985	0.071478
204	H	0.901361	0.428428	0.143906
205	H	0.938748	0.441358	0.561778
206	H	0.984478	0.466746	0.555494
207	H	0.015966	0.522332	0.585781
208	H	0.061683	0.547518	0.597939
209	H	0.098953	0.549048	0.164769
210	H	0.146754	0.57302	0.091526
211	H	0.186212	0.581598	0.944812
212	H	0.224375	0.601744	0.713111
213	H	0.250833	0.630845	0.456033
214	H	0.271401	0.641886	0.11365
215	H	0.059925	0.504231	0.083982
216	H	0.94014	0.47492	0.103282
