data_C108H54N6O6S18_2023-05-15_04:53:35
#******************************************
#
# CIF file created by Zeo++
# Zeo++ is an open source package to
# analyze microporous materials
#
#*******************************************

_cell_length_a		52.7178   
_cell_length_b		53.0163   
_cell_length_c		7   
_cell_angle_alpha		90   
_cell_angle_beta		90   
_cell_angle_gamma		119.754   

_symmetry_space_group_name_H-M		'P1'
_symmetry_Int_Tables_number		1
_symmetry_cell_setting		Monoclinic

loop_
_symmetry_equiv_pos_as_xyz
'+x,+y,+z'

loop_
_atom_site_label
_atom_site_type_symbol
_atom_site_fract_x
_atom_site_fract_y
_atom_site_fract_z
1	C	0.362735	0.672815	0.999995
2	O	0.388511	0.677335	0.999991
3	C	0.339432	0.642604	0.999998
4	C	0.343955	0.620335	0
5	N	0.372809	0.625543	0
6	C	0.309622	0.637241	3e-06
7	O	0.288679	0.611202	5e-06
8	C	0.302462	0.660475	6e-06
9	C	0.27503	0.654869	5e-06
10	N	0.252355	0.625242	0
11	C	0.326886	0.690445	4e-06
12	O	0.321197	0.710537	7e-06
13	C	0.357176	0.697154	0.999999
14	C	0.378707	0.724494	0.999998
15	N	0.374382	0.748764	0
16	H	0.326116	0.598657	1e-06
17	H	0.269244	0.67151	8e-06
18	H	0.400483	0.728399	0.999997
19	C	0.637265	0.327185	0.999995
20	O	0.611489	0.322665	0.999991
21	C	0.660568	0.357396	0.999998
22	C	0.656045	0.379665	0
23	N	0.627191	0.374457	0
24	C	0.690378	0.362759	3e-06
25	O	0.711321	0.388798	5e-06
26	C	0.697538	0.339525	6e-06
27	C	0.72497	0.345131	5e-06
28	N	0.747645	0.374758	0
29	C	0.673114	0.309555	4e-06
30	O	0.678803	0.289463	7e-06
31	C	0.642824	0.302846	0.999999
32	C	0.621293	0.275506	0.999998
33	N	0.625618	0.251236	0
34	H	0.673884	0.401343	1e-06
35	H	0.730756	0.32849	8e-06
36	H	0.599517	0.271601	0.999997
37	C	0.390418	0.608162	0
38	C	0.401788	0.596793	0.12791
39	C	0.404091	0.608616	0.314863
40	C	0.416213	0.600425	0.49632
41	C	0.418401	0.611871	0.676042
42	C	0.43018	0.600258	0.811223
43	C	0.436801	0.580313	0.731629
44	C	0.448777	0.564538	0.830327
45	C	0.448101	0.559786	0.02507
46	C	0.462038	0.543627	0.077711
47	C	0.47309	0.536184	0.922291
48	C	0.489047	0.520024	0.919038
49	C	0.48259	0.497965	0.785438
50	C	0.497883	0.482627	0.78557
51	C	0.520024	0.488954	0.919307
52	C	0.536132	0.472947	0.922832
53	C	0.543395	0.46178	0.078313
54	C	0.559568	0.447828	0.025949
55	C	0.564519	0.448615	0.831358
56	C	0.580368	0.436656	0.732964
57	C	0.599994	0.429554	0.813531
58	C	0.611799	0.417962	0.67838
59	C	0.600823	0.416403	0.49765
60	C	0.609344	0.404655	0.315917
61	C	0.62899	0.394596	0.320492
62	S	0.633609	0.383319	0.100006
63	C	0.609582	0.391838	0
64	C	0.598015	0.403011	0.127903
65	S	0.576565	0.428833	0.492981
66	S	0.549452	0.466633	0.715997
67	C	0.52633	0.510863	0.053839
68	C	0.511041	0.526198	0.053702
69	S	0.466689	0.549326	0.715138
70	S	0.428303	0.575975	0.49259
71	C	0.394304	0.628415	0.318674
72	S	0.382489	0.632585	0.098754
73	H	0.408123	0.58089	0.089929
74	H	0.412029	0.627804	0.711966
75	H	0.433739	0.606589	0.960228
76	H	0.437891	0.567332	0.127033
77	H	0.463608	0.537565	0.22321
78	H	0.465381	0.49221	0.680228
79	H	0.492028	0.46549	0.680459
80	H	0.537198	0.463284	0.223644
81	H	0.566986	0.43754	0.128029
82	H	0.605972	0.432638	0.963247
83	H	0.627534	0.411278	0.71504
84	H	0.641045	0.393151	0.440803
85	H	0.582312	0.40966	0.089194
86	H	0.543498	0.516501	0.159145
87	H	0.516788	0.543299	0.158895
88	H	0.393344	0.640821	0.438124
89	C	0.391732	0.783527	0
90	C	0.403081	0.806117	0.12791
91	C	0.391208	0.796637	0.314863
92	C	0.399365	0.816811	0.49632
93	C	0.387872	0.807592	0.676042
94	C	0.399464	0.830831	0.811223
95	C	0.419439	0.857245	0.731629
96	C	0.435206	0.884822	0.830327
97	C	0.439976	0.88888	0.02507
98	C	0.456118	0.918783	0.077711
99	C	0.46353	0.937152	0.922291
100	C	0.479662	0.969061	0.919038
101	C	0.501823	0.984605	0.785438
102	C	0.517135	0.015037	0.78557
103	C	0.510678	0.030704	0.919307
104	C	0.526656	0.062609	0.922832
105	C	0.537823	0.080926	0.078313
106	C	0.551739	0.11085	0.025949
107	C	0.550926	0.114979	0.831358
108	C	0.562845	0.1426	0.732964
109	C	0.569872	0.169134	0.813531
110	C	0.581443	0.192378	0.67838
111	C	0.58306	0.183042	0.49765
112	C	0.594804	0.203185	0.315917
113	C	0.604798	0.232681	0.320492
114	S	0.616088	0.248484	0.100006
115	C	0.60766	0.216173	0
116	C	0.596509	0.193583	0.127903
117	S	0.570712	0.146611	0.492981
118	S	0.532925	0.082105	0.715997
119	C	0.488668	0.015158	0.053839
120	C	0.47336	0.984734	0.053702
121	S	0.450378	0.917726	0.715138
122	S	0.423834	0.853133	0.49259
123	C	0.371394	0.767228	0.318674
124	S	0.36727	0.751359	0.098754
125	H	0.419003	0.828225	0.089929
126	H	0.37192	0.785417	0.711966
127	H	0.393095	0.828062	0.960228
128	H	0.432457	0.871244	0.127033
129	H	0.462192	0.926372	0.22321
130	H	0.507682	0.973263	0.680228
131	H	0.534355	0.026282	0.680459
132	H	0.536346	0.073283	0.223644
133	H	0.562024	0.128447	0.128029
134	H	0.566749	0.171995	0.963247
135	H	0.58807	0.214637	0.71504
136	H	0.606188	0.246076	0.440803
137	H	0.589917	0.171391	0.089194
138	H	0.482928	0.026578	0.159145
139	H	0.456177	0.973418	0.158895
140	H	0.358955	0.753932	0.438124
141	C	0.217396	0.607861	0
142	C	0.194678	0.59664	0.12791
143	C	0.204247	0.594297	0.314863
144	C	0.183968	0.582313	0.49632
145	C	0.193273	0.580087	0.676042
146	C	0.169903	0.56846	0.811223
147	C	0.143306	0.561991	0.731629
148	C	0.115563	0.550189	0.830327
149	C	0.111469	0.550883	0.02507
150	C	0.081391	0.53714	0.077711
151	C	0.062927	0.526213	0.922291
152	C	0.030837	0.510465	0.919038
153	C	0.015133	0.516979	0.785438
154	C	0.984529	0.501886	0.78557
155	C	0.968844	0.479892	0.919307
156	C	0.936758	0.463993	0.922832
157	C	0.918328	0.456844	0.078313
158	C	0.888239	0.440871	0.025949
159	C	0.884101	0.435956	0.831358
160	C	0.856333	0.420294	0.732964
161	C	0.82968	0.400862	0.813531
162	C	0.806305	0.389209	0.67838
163	C	0.815663	0.400104	0.49765
164	C	0.795398	0.39171	0.315917
165	C	0.765758	0.372273	0.320492
166	S	0.749849	0.367747	0.100006
167	C	0.782304	0.391538	0
168	C	0.805022	0.402956	0.127903
169	S	0.85227	0.424105	0.492981
170	S	0.917169	0.450812	0.715997
171	C	0.984548	0.473529	0.053839
172	C	0.015145	0.488618	0.053702
173	S	0.082479	0.532497	0.715138
174	S	0.147409	0.570442	0.49259
175	C	0.233847	0.603906	0.318674
176	S	0.249787	0.615606	0.098754
177	H	0.17242	0.590434	0.089929
178	H	0.215597	0.586328	0.711966
179	H	0.172712	0.564898	0.960228
180	H	0.129198	0.560973	0.127033
181	H	0.073747	0.535612	0.22321
182	H	0.026483	0.534077	0.680228
183	H	0.973163	0.507778	0.680459
184	H	0.926002	0.462983	0.223644
185	H	0.870536	0.433563	0.128029
186	H	0.826826	0.394917	0.963247
187	H	0.783942	0.373635	0.71504
188	H	0.752314	0.360323	0.440803
189	H	0.827317	0.418499	0.089194
190	H	0.97312	0.456471	0.159145
191	H	0.026582	0.482833	0.158895
192	H	0.247247	0.604797	0.438124
