data_C84H36N6O6S18_2023-05-13_08:36:11
#******************************************
#
# CIF file created by Zeo++
# Zeo++ is an open source package to
# analyze microporous materials
#
#*******************************************

_cell_length_a		53.0887   
_cell_length_b		53.3871   
_cell_length_c		7   
_cell_angle_alpha		90   
_cell_angle_beta		90   
_cell_angle_gamma		119.756   

_symmetry_space_group_name_H-M		'P1'
_symmetry_Int_Tables_number		1
_symmetry_cell_setting		Monoclinic

loop_
_symmetry_equiv_pos_as_xyz
'+x,+y,+z'

loop_
_atom_site_label
_atom_site_type_symbol
_atom_site_fract_x
_atom_site_fract_y
_atom_site_fract_z
1	C	0.362529	0.672772	0.999995
2	O	0.388126	0.677261	0.999991
3	C	0.339388	0.64277	0.999998
4	C	0.343879	0.620657	0
5	N	0.372532	0.625828	0
6	C	0.309786	0.637445	3e-06
7	O	0.288989	0.611587	5e-06
8	C	0.302678	0.660518	6e-06
9	C	0.275437	0.65495	5e-06
10	N	0.252919	0.625529	0
11	C	0.326932	0.69028	4e-06
12	O	0.321283	0.710233	7e-06
13	C	0.357011	0.696942	0.999999
14	C	0.378392	0.724094	0.999998
15	N	0.374098	0.748195	0
16	H	0.326164	0.599129	1e-06
17	H	0.269692	0.671477	8e-06
18	H	0.400016	0.727971	0.999997
19	C	0.637471	0.327228	0.999995
20	O	0.611874	0.322739	0.999991
21	C	0.660612	0.35723	0.999998
22	C	0.656121	0.379343	0
23	N	0.627468	0.374172	0
24	C	0.690214	0.362555	3e-06
25	O	0.711011	0.388413	5e-06
26	C	0.697322	0.339482	6e-06
27	C	0.724563	0.34505	5e-06
28	N	0.747081	0.374471	0
29	C	0.673068	0.30972	4e-06
30	O	0.678717	0.289767	7e-06
31	C	0.642989	0.303058	0.999999
32	C	0.621608	0.275906	0.999998
33	N	0.625902	0.251805	0
34	H	0.673836	0.400871	1e-06
35	H	0.730308	0.328523	8e-06
36	H	0.599984	0.272029	0.999997
37	C	0.609982	0.391433	0
38	C	0.604049	0.397294	0.82049
39	C	0.58845	0.412692	0.828913
40	C	0.583065	0.418006	0.014307
41	C	0.567938	0.432938	0.076359
42	C	0.56258	0.438227	0.26099
43	C	0.54699	0.453616	0.268771
44	C	0.54053	0.459994	0.090099
45	C	0.524934	0.475389	0.049131
46	C	0.513844	0.486332	0.183767
47	C	0.499732	0.500264	0.097047
48	C	0.50027	0.499739	0.902954
49	C	0.486158	0.51367	0.816234
50	C	0.475068	0.524613	0.95087
51	C	0.459473	0.540009	0.909902
52	C	0.453014	0.546387	0.73123
53	C	0.437424	0.561776	0.739012
54	C	0.432064	0.567064	0.923642
55	C	0.416936	0.581995	0.985694
56	C	0.41155	0.587308	0.171088
57	C	0.395951	0.602706	0.17951
58	C	0.390018	0.608567	0
59	S	0.402685	0.596067	0.824333
60	S	0.446251	0.553057	0.084001
61	S	0.481848	0.517915	0.181003
62	S	0.518155	0.482088	0.818998
63	S	0.55375	0.446944	0.916
64	S	0.597316	0.403934	0.175668
65	H	0.610358	0.391067	0.689597
66	H	0.581584	0.419471	0.702784
67	H	0.569416	0.431479	0.387369
68	H	0.54094	0.459587	0.401728
69	H	0.515499	0.484694	0.336852
70	H	0.484503	0.515308	0.663149
71	H	0.459065	0.540417	0.598273
72	H	0.430588	0.568525	0.612632
73	H	0.418415	0.580529	0.297217
74	H	0.389641	0.608932	0.310403
75	C	0.608069	0.216985	0
76	C	0.602219	0.205267	0.82049
77	C	0.586849	0.174471	0.828913
78	C	0.581544	0.163841	0.014307
79	C	0.566639	0.133977	0.076359
80	C	0.561359	0.123398	0.26099
81	C	0.545998	0.09262	0.268771
82	C	0.539632	0.079865	0.090099
83	C	0.524265	0.049075	0.049131
84	C	0.513341	0.027185	0.183767
85	C	0.499435	0.999323	0.097047
86	C	0.499959	0.000379	0.902954
87	C	0.486053	0.972517	0.816234
88	C	0.47513	0.950627	0.95087
89	C	0.459762	0.919837	0.909902
90	C	0.453395	0.907082	0.73123
91	C	0.438034	0.876304	0.739012
92	C	0.432756	0.865725	0.923642
93	C	0.417852	0.835861	0.985694
94	C	0.412548	0.825231	0.171088
95	C	0.397178	0.794435	0.17951
96	C	0.391328	0.782717	0
97	S	0.403806	0.807722	0.824333
98	S	0.446738	0.893737	0.084001
99	S	0.481816	0.964018	0.181003
100	S	0.517578	0.035684	0.818998
101	S	0.552658	0.105965	0.916
102	S	0.59559	0.19198	0.175668
103	H	0.608434	0.217722	0.689597
104	H	0.580081	0.160914	0.702784
105	H	0.568095	0.136895	0.387369
106	H	0.540038	0.080677	0.401728
107	H	0.514977	0.030457	0.336852
108	H	0.484418	0.969246	0.663149
109	H	0.459354	0.919025	0.598273
110	H	0.431297	0.862807	0.612632
111	H	0.419316	0.838788	0.297217
112	H	0.390964	0.78198	0.310403
113	C	0.781498	0.391135	0
114	C	0.793282	0.396992	0.82049
115	C	0.824251	0.41239	0.828913
116	C	0.834941	0.417706	0.014307
117	C	0.864973	0.432638	0.076359
118	C	0.875611	0.437927	0.26099
119	C	0.906562	0.453317	0.268771
120	C	0.919388	0.459694	0.090099
121	C	0.950351	0.475088	0.049131
122	C	0.972364	0.486036	0.183767
123	C	0.000382	0.499966	0.097047
124	C	0.99932	0.499435	0.902954
125	C	0.027338	0.513365	0.816234
126	C	0.049352	0.524313	0.95087
127	C	0.080315	0.539707	0.909902
128	C	0.093141	0.546083	0.73123
129	C	0.124091	0.561473	0.739012
130	C	0.13473	0.566764	0.923642
131	C	0.164761	0.581696	0.985694
132	C	0.175452	0.587014	0.171088
133	C	0.20642	0.602412	0.17951
134	C	0.218204	0.608269	0
135	S	0.193058	0.595764	0.824333
136	S	0.106561	0.552759	0.084001
137	S	0.035886	0.51762	0.181003
138	S	0.963817	0.481781	0.818998
139	S	0.893142	0.446644	0.916
140	S	0.806644	0.403638	0.175668
141	H	0.780758	0.390764	0.689597
142	H	0.837884	0.419167	0.702784
143	H	0.862038	0.431179	0.387369
144	H	0.918572	0.459289	0.401728
145	H	0.969074	0.484402	0.336852
146	H	0.030628	0.514999	0.663149
147	H	0.081131	0.54011	0.598273
148	H	0.137664	0.56822	0.612632
149	H	0.161819	0.580236	0.297217
150	H	0.218945	0.608641	0.310403
