data_C105H51N9O6S18_2023-05-15_13:08:31
#******************************************
#
# CIF file created by Zeo++
# Zeo++ is an open source package to
# analyze microporous materials
#
#*******************************************

_cell_length_a		53.6281   
_cell_length_b		53.9265   
_cell_length_c		7   
_cell_angle_alpha		90   
_cell_angle_beta		90   
_cell_angle_gamma		119.758   

_symmetry_space_group_name_H-M		'P1'
_symmetry_Int_Tables_number		1
_symmetry_cell_setting		Monoclinic

loop_
_symmetry_equiv_pos_as_xyz
'+x,+y,+z'

loop_
_atom_site_label
_atom_site_type_symbol
_atom_site_fract_x
_atom_site_fract_y
_atom_site_fract_z
1	C	0.362236	0.672711	0.999995
2	O	0.387576	0.677156	0.999991
3	C	0.339326	0.643009	0.999998
4	C	0.343771	0.621116	0
5	N	0.372136	0.626235	0
6	C	0.310022	0.637737	3e-06
7	O	0.289433	0.612136	5e-06
8	C	0.302986	0.66058	6e-06
9	C	0.276018	0.655067	5e-06
10	N	0.253726	0.62594	0
11	C	0.326998	0.690044	4e-06
12	O	0.321406	0.709798	7e-06
13	C	0.356774	0.69664	0.999999
14	C	0.377942	0.723521	0.999998
15	N	0.373692	0.747382	0
16	H	0.326233	0.599803	1e-06
17	H	0.270333	0.671429	8e-06
18	H	0.399348	0.727359	0.999997
19	C	0.637764	0.327289	0.999995
20	O	0.612424	0.322844	0.999991
21	C	0.660674	0.356991	0.999998
22	C	0.656229	0.378884	0
23	N	0.627864	0.373765	0
24	C	0.689978	0.362263	3e-06
25	O	0.710567	0.387864	5e-06
26	C	0.697014	0.33942	6e-06
27	C	0.723982	0.344933	5e-06
28	N	0.746274	0.37406	0
29	C	0.673002	0.309956	4e-06
30	O	0.678594	0.290202	7e-06
31	C	0.643226	0.30336	0.999999
32	C	0.622058	0.276479	0.999998
33	N	0.626308	0.252618	0
34	H	0.673767	0.400197	1e-06
35	H	0.729667	0.328571	8e-06
36	H	0.600652	0.272641	0.999997
37	C	0.389445	0.609147	0
38	C	0.376405	0.622016	0.09287
39	S	0.378733	0.619712	0.334956
40	C	0.397355	0.601332	0.316082
41	C	0.406575	0.592227	0.483854
42	C	0.402496	0.59625	0.673872
43	C	0.414533	0.584366	0.801624
44	C	0.427728	0.571342	0.708445
45	C	0.441946	0.557306	0.796671
46	C	0.44494	0.554355	0.990098
47	C	0.460072	0.539416	0.03081
48	C	0.46862	0.530973	0.868358
49	C	0.484589	0.515208	0.852513
50	C	0.492015	0.507881	0.678337
51	C	0.50716	0.49293	0.672987
52	C	0.514867	0.485316	0.843388
53	C	0.53078	0.469607	0.85728
54	C	0.539158	0.461336	0.021118
55	C	0.554301	0.446387	0.98276
56	C	0.557429	0.443298	0.789527
57	C	0.571713	0.429196	0.703167
58	C	0.584832	0.416243	0.798143
59	C	0.59697	0.404261	0.67206
60	C	0.593043	0.40814	0.481496
61	C	0.602395	0.398907	0.314992
62	C	0.598429	0.402825	0.123875
63	C	0.610555	0.390853	0
64	C	0.623518	0.378053	0.094639
65	S	0.620998	0.380539	0.336396
66	S	0.574537	0.42641	0.460787
67	S	0.541688	0.458838	0.659177
68	N	0.50805	0.492042	0.014635
69	C	0.493348	0.506556	0.014662
70	S	0.457767	0.541683	0.668865
71	S	0.425096	0.573944	0.465685
72	C	0.401473	0.59727	0.125517
73	H	0.365659	0.632623	0.031863
74	H	0.391357	0.607246	0.72204
75	H	0.413354	0.585527	0.955527
76	H	0.436717	0.562475	0.10027
77	H	0.464277	0.535268	0.175201
78	H	0.486304	0.513524	0.542631
79	H	0.512539	0.487623	0.535282
80	H	0.534523	0.465912	0.163413
81	H	0.562425	0.438367	0.094168
82	H	0.585881	0.415208	0.952217
83	H	0.608068	0.393304	0.721786
84	H	0.587307	0.413807	0.075144
85	H	0.63431	0.367398	0.035106
86	H	0.488785	0.511057	0.157648
87	H	0.412635	0.586254	0.078281
88	C	0.39075	0.781559	0
89	C	0.377905	0.755817	0.09287
90	S	0.380204	0.760419	0.334956
91	C	0.398552	0.797183	0.316082
92	C	0.40764	0.815391	0.483854
93	C	0.403624	0.807341	0.673872
94	C	0.415487	0.831109	0.801624
95	C	0.428487	0.857159	0.708445
96	C	0.442498	0.885233	0.796671
97	C	0.445444	0.891139	0.990098
98	C	0.460356	0.921017	0.03081
99	C	0.468783	0.937899	0.868358
100	C	0.48452	0.969429	0.852513
101	C	0.491835	0.984089	0.678337
102	C	0.506759	0.013992	0.672987
103	C	0.514359	0.029214	0.843388
104	C	0.53004	0.060633	0.85728
105	C	0.538296	0.077175	0.021118
106	C	0.553219	0.107075	0.98276
107	C	0.556301	0.113251	0.789527
108	C	0.570378	0.141456	0.703167
109	C	0.583308	0.167361	0.798143
110	C	0.595268	0.191325	0.67206
111	C	0.591397	0.18357	0.481496
112	C	0.600613	0.202036	0.314992
113	C	0.596702	0.194202	0.123875
114	C	0.608652	0.218146	0
115	C	0.621429	0.243744	0.094639
116	S	0.618948	0.23877	0.336396
117	S	0.57316	0.147031	0.460787
118	S	0.54079	0.082172	0.659177
119	N	0.507645	0.015758	0.014635
120	C	0.493157	0.986729	0.014662
121	S	0.458093	0.916474	0.668865
122	S	0.42589	0.851959	0.465685
123	C	0.402606	0.805311	0.125517
124	H	0.367316	0.7346	0.031863
125	H	0.392648	0.785348	0.72204
126	H	0.414328	0.828784	0.955527
127	H	0.437338	0.8749	0.10027
128	H	0.464497	0.929317	0.175201
129	H	0.486202	0.972807	0.542631
130	H	0.512056	0.024609	0.535282
131	H	0.533728	0.068024	0.163413
132	H	0.561224	0.123115	0.094168
133	H	0.584342	0.169431	0.952217
134	H	0.606206	0.21324	0.721786
135	H	0.58574	0.17224	0.075144
136	H	0.632066	0.265053	0.035106
137	H	0.488664	0.977723	0.157648
138	H	0.413602	0.827347	0.078281
139	C	0.219359	0.608851	0
140	C	0.245244	0.621725	0.09287
141	S	0.240617	0.619426	0.334956
142	C	0.203648	0.601042	0.316082
143	C	0.185339	0.591939	0.483854
144	C	0.193434	0.595966	0.673872
145	C	0.169534	0.584082	0.801624
146	C	0.143338	0.571056	0.708445
147	C	0.115109	0.557019	0.796671
148	C	0.10917	0.554063	0.990098
149	C	0.079126	0.539124	0.03081
150	C	0.06215	0.530685	0.868358
151	C	0.030445	0.51492	0.852513
152	C	0.015704	0.507588	0.678337
153	C	0.985635	0.492636	0.672987
154	C	0.970328	0.485027	0.843388
155	C	0.938735	0.469317	0.85728
156	C	0.9221	0.461046	0.021118
157	C	0.892034	0.446095	0.98276
158	C	0.885824	0.443007	0.789527
159	C	0.857463	0.428905	0.703167
160	C	0.831414	0.415953	0.798143
161	C	0.807316	0.40397	0.67206
162	C	0.815114	0.407848	0.481496
163	C	0.796546	0.398614	0.314992
164	C	0.804423	0.402529	0.123875
165	C	0.780346	0.390558	0
166	C	0.754606	0.37776	0.094639
167	S	0.759608	0.380248	0.336396
168	S	0.851857	0.426117	0.460787
169	S	0.917076	0.458548	0.659177
170	N	0.983859	0.491757	0.014635
171	C	0.013049	0.506272	0.014662
172	S	0.083694	0.5414	0.668865
173	S	0.148568	0.573654	0.465685
174	C	0.195475	0.596976	0.125517
175	H	0.266579	0.632334	0.031863
176	H	0.215549	0.606964	0.72204
177	H	0.171872	0.585247	0.955527
178	H	0.125499	0.562181	0.10027
179	H	0.07078	0.534972	0.175201
180	H	0.027048	0.513226	0.542631
181	H	0.974959	0.487325	0.535282
182	H	0.931303	0.465621	0.163413
183	H	0.875905	0.438075	0.094168
184	H	0.829332	0.414918	0.952217
185	H	0.785279	0.393013	0.721786
186	H	0.826507	0.41351	0.075144
187	H	0.733178	0.367106	0.035106
188	H	0.022105	0.510777	0.157648
189	H	0.173317	0.585957	0.078281
