data_C90H48N12O6_2023-05-29_00:33:48
#******************************************
#
# CIF file created by Zeo++
# Zeo++ is an open source package to
# analyze microporous materials
#
#*******************************************

_cell_length_a		40.1228   
_cell_length_b		40.4213   
_cell_length_c		7   
_cell_angle_alpha		90   
_cell_angle_beta		90   
_cell_angle_gamma		119.677   

_symmetry_space_group_name_H-M		'P1'
_symmetry_Int_Tables_number		1
_symmetry_cell_setting		Monoclinic

loop_
_symmetry_equiv_pos_as_xyz
'+x,+y,+z'

loop_
_atom_site_label
_atom_site_type_symbol
_atom_site_fract_x
_atom_site_fract_y
_atom_site_fract_z
1	C	0.371951	0.674724	0.999995
2	O	0.40581	0.680649	0.999991
3	C	0.341395	0.63513	0.999998
4	C	0.347383	0.605945	0
5	N	0.385284	0.61277	0
6	C	0.302238	0.628102	3e-06
7	O	0.274774	0.593976	5e-06
8	C	0.292784	0.658552	6e-06
9	C	0.256751	0.651204	5e-06
10	N	0.227019	0.612377	0
11	C	0.324814	0.69783	4e-06
12	O	0.317297	0.724162	7e-06
13	C	0.364599	0.706623	0.999999
14	C	0.392833	0.742455	0.999998
15	N	0.387101	0.774263	0
16	H	0.323989	0.577534	1e-06
17	H	0.249116	0.673015	8e-06
18	H	0.421436	0.747572	0.999997
19	C	0.628049	0.325276	0.999995
20	O	0.59419	0.319351	0.999991
21	C	0.658605	0.36487	0.999998
22	C	0.652617	0.394055	0
23	N	0.614716	0.38723	0
24	C	0.697762	0.371898	3e-06
25	O	0.725226	0.406024	5e-06
26	C	0.707216	0.341448	6e-06
27	C	0.743249	0.348796	5e-06
28	N	0.772981	0.387623	0
29	C	0.675186	0.30217	4e-06
30	O	0.682703	0.275838	7e-06
31	C	0.635401	0.293377	0.999999
32	C	0.607167	0.257545	0.999998
33	N	0.612899	0.225737	0
34	H	0.676011	0.422466	1e-06
35	H	0.750884	0.326985	8e-06
36	H	0.578564	0.252428	0.999997
37	C	0.591543	0.410009	0
38	C	0.624652	0.440125	0.930415
39	C	0.614769	0.467087	0.860572
40	C	0.575927	0.452733	0.891765
41	C	0.551031	0.468499	0.84524
42	C	0.543811	0.471112	0.65174
43	C	0.519393	0.484636	0.596903
44	C	0.501769	0.495954	0.734346
45	C	0.476938	0.509081	0.678779
46	C	0.459338	0.520549	0.814939
47	C	0.466072	0.519676	0.012133
48	C	0.448969	0.531501	0.154761
49	C	0.424073	0.547267	0.108236
50	C	0.385231	0.532913	0.13943
51	C	0.375348	0.559875	0.069587
52	C	0.408457	0.589991	0
53	N	0.437816	0.582529	0.024833
54	C	0.456189	0.528888	0.348261
55	C	0.480607	0.515364	0.403097
56	C	0.498231	0.504046	0.265655
57	C	0.523062	0.490919	0.321222
58	C	0.540662	0.479451	0.185061
59	C	0.533927	0.480324	0.987867
60	C	0.508974	0.494041	0.93082
61	C	0.491026	0.505959	0.069181
62	N	0.562184	0.417471	0.975165
63	H	0.652783	0.442636	0.929004
64	H	0.63399	0.494292	0.795337
65	H	0.556962	0.462183	0.542297
66	H	0.514159	0.486081	0.445461
67	H	0.470783	0.510396	0.528464
68	H	0.439748	0.529938	0.764039
69	H	0.36601	0.505708	0.204666
70	H	0.347217	0.557364	0.070998
71	H	0.465431	0.600128	0.987428
72	H	0.443038	0.537817	0.457703
73	H	0.485841	0.513919	0.554539
74	H	0.529217	0.489604	0.471536
75	H	0.560252	0.470062	0.235961
76	H	0.534569	0.399871	0.012569
77	C	0.589375	0.179785	0
78	C	0.558918	0.182623	0.930415
79	C	0.531907	0.146057	0.860572
80	C	0.546573	0.121887	0.891765
81	C	0.530903	0.081591	0.84524
82	C	0.528326	0.071851	0.65174
83	C	0.514903	0.034255	0.596903
84	C	0.503652	0.005573	0.734346
85	C	0.490631	0.967963	0.678779
86	C	0.479229	0.939156	0.814939
87	C	0.480061	0.946686	0.012133
88	C	0.468298	0.918016	0.154761
89	C	0.452628	0.87772	0.108236
90	C	0.467293	0.85355	0.13943
91	C	0.440282	0.816984	0.069587
92	C	0.409826	0.819822	0
93	N	0.417129	0.856284	0.024833
94	C	0.470875	0.927756	0.348261
95	C	0.484298	0.965352	0.403097
96	C	0.495549	0.994034	0.265655
97	C	0.50857	0.031644	0.321222
98	C	0.519972	0.060451	0.185061
99	C	0.519139	0.052921	0.987867
100	C	0.505527	0.014603	0.93082
101	C	0.493674	0.985004	0.069181
102	N	0.582072	0.143323	0.975165
103	H	0.556215	0.207961	0.929004
104	H	0.504464	0.138046	0.795337
105	H	0.537207	0.093734	0.542297
106	H	0.513486	0.027642	0.445461
107	H	0.48935	0.960567	0.528464
108	H	0.469928	0.910445	0.764039
109	H	0.494737	0.861561	0.204666
110	H	0.442986	0.791646	0.070998
111	H	0.399276	0.866121	0.987428
112	H	0.461994	0.905873	0.457703
113	H	0.485715	0.971965	0.554539
114	H	0.509851	0.03904	0.471536
115	H	0.529273	0.089162	0.235961
116	H	0.599925	0.133487	0.012569
117	C	0.818486	0.409616	0
118	C	0.815834	0.376662	0.930415
119	C	0.852728	0.386265	0.860572
120	C	0.876904	0.424789	0.891765
121	C	0.91747	0.44932	0.84524
122	C	0.927268	0.456447	0.65174
123	C	0.965108	0.480518	0.596903
124	C	0.993984	0.497882	0.734346
125	C	0.031836	0.522366	0.678779
126	C	0.060837	0.539705	0.814939
127	C	0.05327	0.533047	0.012133
128	C	0.082137	0.549893	0.154761
129	C	0.122704	0.574423	0.108236
130	C	0.14688	0.612947	0.13943
131	C	0.183774	0.622551	0.069587
132	C	0.181121	0.589597	0
133	N	0.144459	0.560597	0.024833
134	C	0.07234	0.542766	0.348261
135	C	0.034499	0.518695	0.403097
136	C	0.005624	0.50133	0.265655
137	C	0.967772	0.476847	0.321222
138	C	0.93877	0.459508	0.185061
139	C	0.946337	0.466166	0.987867
140	C	0.984903	0.490766	0.93082
141	C	0.014704	0.508447	0.069181
142	N	0.855148	0.438616	0.975165
143	H	0.790407	0.348813	0.929004
144	H	0.86095	0.367072	0.795337
145	H	0.905235	0.443493	0.542297
146	H	0.971759	0.485687	0.445461
147	H	0.039271	0.528447	0.528464
148	H	0.089729	0.559027	0.764039
149	H	0.138658	0.632141	0.204666
150	H	0.209201	0.6504	0.070998
151	H	0.134697	0.533161	0.987428
152	H	0.094372	0.55572	0.457703
153	H	0.027849	0.513526	0.554539
154	H	0.960336	0.470766	0.471536
155	H	0.909879	0.440186	0.235961
156	H	0.86491	0.466052	0.012569
