data_C102H48N12O6S18_2023-05-13_08:44:08
#******************************************
#
# CIF file created by Zeo++
# Zeo++ is an open source package to
# analyze microporous materials
#
#*******************************************

_cell_length_a		58.4804   
_cell_length_b		58.7788   
_cell_length_c		7   
_cell_angle_alpha		90   
_cell_angle_beta		90   
_cell_angle_gamma		119.778   

_symmetry_space_group_name_H-M		'P1'
_symmetry_Int_Tables_number		1
_symmetry_cell_setting		Monoclinic

loop_
_symmetry_equiv_pos_as_xyz
'+x,+y,+z'

loop_
_atom_site_label
_atom_site_type_symbol
_atom_site_fract_x
_atom_site_fract_y
_atom_site_fract_z
1	C	0.35984	0.672213	0.999995
2	O	0.383079	0.676292	0.999991
3	C	0.33882	0.644957	0.999998
4	C	0.342888	0.624868	0
5	N	0.368901	0.629566	0
6	C	0.311945	0.64012	3e-06
7	O	0.293055	0.616628	5e-06
8	C	0.305501	0.661081	6e-06
9	C	0.28077	0.656023	5e-06
10	N	0.260316	0.629295	0
11	C	0.327532	0.688119	4e-06
12	O	0.322412	0.706245	7e-06
13	C	0.35484	0.694171	0.999999
14	C	0.374262	0.718838	0.999998
15	N	0.370374	0.740734	0
16	H	0.326797	0.60531	1e-06
17	H	0.275562	0.671037	8e-06
18	H	0.393893	0.72236	0.999997
19	C	0.64016	0.327787	0.999995
20	O	0.616921	0.323708	0.999991
21	C	0.66118	0.355043	0.999998
22	C	0.657112	0.375132	0
23	N	0.631099	0.370434	0
24	C	0.688055	0.35988	3e-06
25	O	0.706945	0.383372	5e-06
26	C	0.694499	0.338919	6e-06
27	C	0.71923	0.343977	5e-06
28	N	0.739684	0.370705	0
29	C	0.672468	0.311881	4e-06
30	O	0.677588	0.293755	7e-06
31	C	0.64516	0.305829	0.999999
32	C	0.625738	0.281162	0.999998
33	N	0.629626	0.259266	0
34	H	0.673203	0.39469	1e-06
35	H	0.724438	0.328963	8e-06
36	H	0.606107	0.27764	0.999997
37	C	0.615232	0.386115	0
38	C	0.615844	0.385501	0.195358
39	C	0.602874	0.39834	0.277108
40	C	0.592857	0.408265	0.141281
41	C	0.578643	0.422338	0.172068
42	C	0.56867	0.432212	0.03668
43	C	0.555721	0.445033	0.118735
44	C	0.55589	0.444865	0.316246
45	C	0.544701	0.45594	0.446435
46	C	0.544894	0.455785	0.643985
47	C	0.531946	0.468589	0.72561
48	C	0.521935	0.478454	0.590214
49	C	0.507521	0.492695	0.622651
50	C	0.497902	0.502152	0.479856
51	N	0.484645	0.515247	0.51591
52	C	0.481012	0.518884	0.702134
53	C	0.466681	0.533033	0.743505
54	C	0.46017	0.539411	0.917783
55	C	0.44607	0.553347	0.899415
56	C	0.441871	0.557552	0.711465
57	C	0.428236	0.57104	0.64488
58	C	0.416967	0.58222	0.757053
59	C	0.405008	0.594034	0.647904
60	C	0.407209	0.59181	0.452967
61	C	0.3972	0.601686	0.303721
62	C	0.383593	0.615238	0.328823
63	C	0.376382	0.622314	0.152968
64	C	0.384768	0.613885	0
65	S	0.400895	0.597875	0.063387
66	S	0.423913	0.575265	0.407652
67	S	0.455321	0.544318	0.56077
68	C	0.490647	0.509415	0.844781
69	N	0.503911	0.496311	0.809434
70	S	0.528615	0.471817	0.36509
71	S	0.571943	0.428971	0.397536
72	S	0.599576	0.401621	0.914612
73	H	0.624961	0.376471	0.276876
74	H	0.60111	0.400081	0.429802
75	H	0.570402	0.430497	0.883926
76	H	0.54675	0.453916	0.033775
77	H	0.553881	0.446922	0.728981
78	H	0.530021	0.470517	0.877996
79	H	0.500369	0.499675	0.329187
80	H	0.465128	0.534464	0.054828
81	H	0.439396	0.559898	0.020862
82	H	0.41712	0.582105	0.91171
83	H	0.395255	0.603701	0.712151
84	H	0.378866	0.620021	0.467324
85	H	0.365704	0.63293	0.141683
86	H	0.488113	0.51196	0.995164
87	C	0.613424	0.227634	0
88	C	0.614037	0.228853	0.195358
89	C	0.601219	0.203196	0.277108
90	C	0.59131	0.183371	0.141281
91	C	0.57726	0.155249	0.172068
92	C	0.567402	0.13552	0.03668
93	C	0.554602	0.109901	0.118735
94	C	0.55477	0.110237	0.316246
95	C	0.543713	0.088103	0.446435
96	C	0.543868	0.088449	0.643985
97	C	0.531085	0.062848	0.72561
98	C	0.521237	0.04309	0.590214
99	C	0.507018	0.014603	0.622651
100	C	0.497577	0.995639	0.479856
101	N	0.484504	0.969443	0.51591
102	C	0.480873	0.962216	0.702134
103	C	0.466747	0.933903	0.743505
104	C	0.46038	0.92109	0.917783
105	C	0.446467	0.893219	0.899415
106	C	0.442268	0.884864	0.711465
107	C	0.428803	0.857901	0.64488
108	C	0.417641	0.835583	0.757053
109	C	0.405846	0.811951	0.647904
110	C	0.408066	0.816349	0.452967
111	C	0.398207	0.796581	0.303721
112	C	0.384677	0.769582	0.328823
113	C	0.377613	0.755379	0.152968
114	C	0.386029	0.772096	0
115	S	0.402012	0.804043	0.063387
116	S	0.424584	0.849403	0.407652
117	S	0.455481	0.911392	0.56077
118	C	0.490326	0.981207	0.844781
119	N	0.503409	0.00742	0.809434
120	S	0.527862	0.056328	0.36509
121	S	0.570638	0.141996	0.397536
122	S	0.597943	0.196655	0.914612
123	H	0.623053	0.246893	0.276876
124	H	0.599481	0.199711	0.429802
125	H	0.569114	0.138947	0.883926
126	H	0.545734	0.092152	0.033775
127	H	0.552716	0.106194	0.728981
128	H	0.52916	0.059018	0.877996
129	H	0.500051	0.000554	0.329187
130	H	0.465318	0.930936	0.054828
131	H	0.439927	0.880072	0.020862
132	H	0.417756	0.835851	0.91171
133	H	0.396195	0.792645	0.712151
134	H	0.379901	0.760128	0.467324
135	H	0.367013	0.73421	0.141683
136	H	0.487785	0.976158	0.995164
137	C	0.770935	0.385844	0
138	C	0.76971	0.38524	0.195358
139	C	0.795498	0.398058	0.277108
140	C	0.815424	0.407958	0.141281
141	C	0.843688	0.422006	0.172068
142	C	0.863519	0.431862	0.03668
143	C	0.889268	0.444659	0.118735
144	C	0.888931	0.444492	0.316246
145	C	0.911177	0.45555	0.446435
146	C	0.910829	0.45536	0.643985
147	C	0.93656	0.468156	0.72561
148	C	0.956419	0.47805	0.590214
149	C	0.985052	0.492295	0.622651
150	C	0.004112	0.501802	0.479856
151	N	0.030442	0.514904	0.51591
152	C	0.037706	0.518494	0.702134
153	C	0.066163	0.532658	0.743505
154	C	0.079041	0.539093	0.917783
155	C	0.107054	0.553028	0.899415
156	C	0.115451	0.557177	0.711465
157	C	0.142552	0.570653	0.64488
158	C	0.164983	0.58179	0.757053
159	C	0.188737	0.593609	0.647904
160	C	0.184316	0.591434	0.452967
161	C	0.204184	0.601326	0.303721
162	C	0.231321	0.614774	0.328823
163	C	0.245596	0.621901	0.152968
164	C	0.228794	0.613614	0
165	S	0.196684	0.597675	0.063387
166	S	0.151093	0.574925	0.407652
167	S	0.088789	0.543884	0.56077
168	C	0.018618	0.508972	0.844781
169	N	0.992271	0.495863	0.809434
170	S	0.943114	0.471448	0.36509
171	S	0.857009	0.428627	0.397536
172	S	0.802071	0.401317	0.914612
173	H	0.751577	0.37623	0.276876
174	H	0.799	0.399802	0.429802
175	H	0.860074	0.43015	0.883926
176	H	0.907108	0.453526	0.033775
177	H	0.892994	0.446478	0.728981
178	H	0.94041	0.470058	0.877996
179	H	0.999172	0.499364	0.329187
180	H	0.069145	0.534193	0.054828
181	H	0.120268	0.559624	0.020862
182	H	0.164715	0.581638	0.91171
183	H	0.208141	0.603248	0.712151
184	H	0.240824	0.619445	0.467324
185	H	0.266874	0.632453	0.141683
186	H	0.023693	0.511476	0.995164
