data_C84H42N6O6S12_2023-05-13_03:49:46
#******************************************
#
# CIF file created by Zeo++
# Zeo++ is an open source package to
# analyze microporous materials
#
#*******************************************

_cell_length_a		47.7135   
_cell_length_b		48.012   
_cell_length_c		7   
_cell_angle_alpha		90   
_cell_angle_beta		90   
_cell_angle_gamma		119.728   

_symmetry_space_group_name_H-M		'P1'
_symmetry_Int_Tables_number		1
_symmetry_cell_setting		Monoclinic

loop_
_symmetry_equiv_pos_as_xyz
'+x,+y,+z'

loop_
_atom_site_label
_atom_site_type_symbol
_atom_site_fract_x
_atom_site_fract_y
_atom_site_fract_z
1	C	0.365815	0.673454	0.999995
2	O	0.394292	0.678444	0.999991
3	C	0.340085	0.640102	0.999998
4	C	0.345095	0.615519	0
5	N	0.376973	0.621268	0
6	C	0.307152	0.634183	3e-06
7	O	0.284027	0.605437	5e-06
8	C	0.299228	0.659832	6e-06
9	C	0.268921	0.653642	5e-06
10	N	0.243885	0.620936	0
11	C	0.326196	0.692917	4e-06
12	O	0.319898	0.715097	7e-06
13	C	0.359659	0.700323	0.999999
14	C	0.383433	0.730506	0.999998
15	N	0.378641	0.757298	0
16	H	0.325398	0.591588	1e-06
17	H	0.26252	0.672014	8e-06
18	H	0.40749	0.734815	0.999997
19	C	0.634185	0.326546	0.999995
20	O	0.605708	0.321556	0.999991
21	C	0.659915	0.359898	0.999998
22	C	0.654905	0.384481	0
23	N	0.623027	0.378732	0
24	C	0.692848	0.365817	3e-06
25	O	0.715973	0.394563	5e-06
26	C	0.700772	0.340168	6e-06
27	C	0.731079	0.346358	5e-06
28	N	0.756115	0.379064	0
29	C	0.673804	0.307083	4e-06
30	O	0.680102	0.284903	7e-06
31	C	0.640341	0.299677	0.999999
32	C	0.616567	0.269494	0.999998
33	N	0.621359	0.242702	0
34	H	0.674602	0.408412	1e-06
35	H	0.73748	0.327986	8e-06
36	H	0.59251	0.265185	0.999997
37	C	0.603561	0.39792	0
38	C	0.590863	0.41044	0.872997
39	C	0.575576	0.425508	0.970321
40	C	0.577401	0.423704	0.166487
41	C	0.562819	0.438077	0.312872
42	C	0.564946	0.435976	0.507628
43	S	0.546889	0.453773	0.627463
44	C	0.535582	0.464924	0.420026
45	C	0.517519	0.48273	0.424444
46	C	0.508553	0.491569	0.594751
47	C	0.491447	0.508431	0.594751
48	C	0.482481	0.51727	0.424443
49	C	0.464418	0.535076	0.420025
50	C	0.454042	0.545301	0.263312
51	C	0.437182	0.561923	0.312871
52	C	0.422599	0.576296	0.166486
53	C	0.424424	0.574491	0.970321
54	C	0.409137	0.589559	0.872996
55	C	0.396439	0.60208	0
56	S	0.402508	0.596104	0.231037
57	C	0.435055	0.564025	0.507627
58	S	0.453112	0.546229	0.627463
59	C	0.49145	0.508429	0.254107
60	C	0.50855	0.491571	0.254107
61	C	0.545958	0.454699	0.263313
62	S	0.597493	0.403897	0.231038
63	H	0.592275	0.40905	0.719176
64	H	0.56395	0.43697	0.897759
65	H	0.576197	0.424883	0.587593
66	H	0.514552	0.485656	0.73321
67	H	0.485448	0.514345	0.73321
68	H	0.45836	0.541039	0.117443
69	H	0.436049	0.563029	0.897758
70	H	0.407723	0.590948	0.719176
71	H	0.423805	0.575119	0.587593
72	H	0.485398	0.514395	0.116124
73	H	0.514602	0.485605	0.116124
74	H	0.541639	0.45896	0.117443
75	C	0.601539	0.203995	0
76	C	0.589044	0.178958	0.872997
77	C	0.574006	0.148822	0.970321
78	C	0.575806	0.152425	0.166487
79	C	0.561462	0.123678	0.312872
80	C	0.563559	0.127876	0.507628
81	S	0.545798	0.092281	0.627463
82	C	0.534669	0.069983	0.420026
83	C	0.5169	0.034374	0.424444
84	C	0.508078	0.016696	0.594751
85	C	0.49125	0.982973	0.594751
86	C	0.482429	0.965295	0.424443
87	C	0.464659	0.929686	0.420025
88	C	0.454455	0.909232	0.263312
89	C	0.437866	0.875991	0.312871
90	C	0.423522	0.847244	0.166486
91	C	0.425323	0.850847	0.970321
92	C	0.410286	0.820711	0.872996
93	C	0.39779	0.795674	0
94	S	0.403754	0.807632	0.231037
95	C	0.435768	0.871793	0.507627
96	S	0.453529	0.907388	0.627463
97	C	0.491253	0.982978	0.254107
98	C	0.508076	0.016691	0.254107
99	C	0.544874	0.090437	0.263313
100	S	0.595573	0.192036	0.231038
101	H	0.59043	0.18174	0.719176
102	H	0.562567	0.1259	0.897759
103	H	0.57463	0.150059	0.587593
104	H	0.51398	0.028523	0.73321
105	H	0.485348	0.971146	0.73321
106	H	0.458708	0.917751	0.117443
107	H	0.436763	0.873769	0.897758
108	H	0.408899	0.817929	0.719176
109	H	0.424697	0.84961	0.587593
110	H	0.485299	0.971046	0.116124
111	H	0.51403	0.028623	0.116124
112	H	0.540621	0.081918	0.117443
113	C	0.794399	0.397588	0
114	C	0.819593	0.410105	0.872997
115	C	0.849917	0.425173	0.970321
116	C	0.846291	0.423374	0.166487
117	C	0.875218	0.437748	0.312872
118	C	0.870994	0.435651	0.507628
119	S	0.906811	0.45345	0.627463
120	C	0.929248	0.464595	0.420026
121	C	0.96508	0.482399	0.424444
122	C	0.982868	0.491238	0.594751
123	C	0.016801	0.508099	0.594751
124	C	0.03459	0.516937	0.424443
125	C	0.070422	0.534741	0.420025
126	C	0.091003	0.54497	0.263312
127	C	0.124451	0.561588	0.312871
128	C	0.153378	0.575963	0.166486
129	C	0.149752	0.574164	0.970321
130	C	0.180077	0.589233	0.872996
131	C	0.20527	0.601749	0
132	S	0.193237	0.595767	0.231037
133	C	0.128675	0.563684	0.507627
134	S	0.092858	0.545886	0.627463
135	C	0.016797	0.508097	0.254107
136	C	0.982872	0.49124	0.254107
137	C	0.908667	0.454367	0.263313
138	S	0.806432	0.403569	0.231038
139	H	0.816793	0.408712	0.719176
140	H	0.872982	0.436633	0.897759
141	H	0.848672	0.424561	0.587593
142	H	0.970967	0.485324	0.73321
143	H	0.028702	0.514012	0.73321
144	H	0.08243	0.540713	0.117443
145	H	0.126687	0.562705	0.897758
146	H	0.182876	0.590626	0.719176
147	H	0.150997	0.574774	0.587593
148	H	0.028803	0.514062	0.116124
149	H	0.970867	0.485275	0.116124
150	H	0.917239	0.458625	0.117443
