data_C114H54N6O6S12_2023-05-11_15:03:39
#******************************************
#
# CIF file created by Zeo++
# Zeo++ is an open source package to
# analyze microporous materials
#
#*******************************************

_cell_length_a		51.2233   
_cell_length_b		51.5218   
_cell_length_c		7   
_cell_angle_alpha		90   
_cell_angle_beta		90   
_cell_angle_gamma		119.747   

_symmetry_space_group_name_H-M		'P1'
_symmetry_Int_Tables_number		1
_symmetry_cell_setting		Monoclinic

loop_
_symmetry_equiv_pos_as_xyz
'+x,+y,+z'

loop_
_atom_site_label
_atom_site_type_symbol
_atom_site_fract_x
_atom_site_fract_y
_atom_site_fract_z
1	C	0.363592	0.672992	0.999995
2	O	0.39012	0.677644	0.999991
3	C	0.339613	0.641907	0.999998
4	C	0.344272	0.618995	0
5	N	0.373967	0.624353	0
6	C	0.308934	0.63639	3e-06
7	O	0.287385	0.609598	5e-06
8	C	0.301562	0.660296	6e-06
9	C	0.27333	0.654527	5e-06
10	N	0.249998	0.624044	0
11	C	0.326695	0.691133	4e-06
12	O	0.320836	0.711806	7e-06
13	C	0.357867	0.698036	0.999999
14	C	0.380022	0.726168	0.999998
15	N	0.375568	0.75114	0
16	H	0.325915	0.59669	1e-06
17	H	0.267374	0.67165	8e-06
18	H	0.402433	0.730185	0.999997
19	C	0.636408	0.327008	0.999995
20	O	0.60988	0.322356	0.999991
21	C	0.660387	0.358093	0.999998
22	C	0.655728	0.381005	0
23	N	0.626033	0.375647	0
24	C	0.691066	0.36361	3e-06
25	O	0.712615	0.390402	5e-06
26	C	0.698438	0.339704	6e-06
27	C	0.72667	0.345473	5e-06
28	N	0.750002	0.375956	0
29	C	0.673305	0.308867	4e-06
30	O	0.679164	0.288194	7e-06
31	C	0.642133	0.301964	0.999999
32	C	0.619978	0.273832	0.999998
33	N	0.624432	0.24886	0
34	H	0.674085	0.40331	1e-06
35	H	0.732626	0.32835	8e-06
36	H	0.597567	0.269815	0.999997
37	C	0.607907	0.393531	0
38	C	0.615934	0.421574	0.066042
39	C	0.591539	0.427473	0.052251
40	C	0.592889	0.457731	0.109335
41	C	0.618169	0.482494	0.178439
42	C	0.613174	0.507062	0.21144
43	C	0.584024	0.49999	0.169119
44	C	0.57046	0.519255	0.176838
45	C	0.577487	0.539889	0.027799
46	C	0.565136	0.558714	0.019612
47	C	0.572555	0.57908	0.869023
48	C	0.56034	0.597824	0.859994
49	C	0.540448	0.596264	0.001314
50	C	0.53206	0.575839	0.154989
51	C	0.511559	0.573301	0.299827
52	C	0.496324	0.591051	0.300219
53	C	0.502357	0.615594	0.410828
54	C	0.481557	0.62597	0.375786
55	C	0.460496	0.609124	0.239294
56	C	0.434102	0.614268	0.170052
57	C	0.429156	0.636436	0.241376
58	S	0.398536	0.63595	0.138945
59	C	0.392093	0.606469	0
60	C	0.412221	0.596652	0.028973
61	S	0.466232	0.581369	0.152043
62	C	0.505115	0.553186	0.451372
63	C	0.518078	0.534902	0.46211
64	C	0.511248	0.515029	0.614946
65	C	0.524038	0.496798	0.626356
66	C	0.543613	0.498087	0.483857
67	C	0.550943	0.517597	0.325853
68	C	0.538056	0.536463	0.317084
69	C	0.545003	0.55703	0.164004
70	S	0.563168	0.463939	0.089568
71	C	0.566029	0.403247	0.979835
72	S	0.571734	0.37396	0.925393
73	H	0.638141	0.437077	0.119509
74	H	0.639556	0.483557	0.202502
75	H	0.630196	0.52893	0.261369
76	H	0.59272	0.54097	0.915533
77	H	0.588046	0.580586	0.757569
78	H	0.566242	0.613651	0.743089
79	H	0.531494	0.611444	0.989972
80	H	0.520543	0.625388	0.513545
81	H	0.482359	0.644827	0.449126
82	H	0.441702	0.652975	0.349245
83	H	0.411502	0.577986	0.953147
84	H	0.489438	0.551694	0.561775
85	H	0.495877	0.513612	0.726902
86	H	0.518754	0.481496	0.745651
87	H	0.553199	0.483474	0.49796
88	H	0.544159	0.40101	0.953305
89	C	0.605956	0.212783	0
90	C	0.57778	0.192843	0.066042
91	C	0.571986	0.162782	0.052251
92	C	0.541622	0.134016	0.109335
93	C	0.51665	0.13445	0.178439
94	C	0.492026	0.105053	0.21144
95	C	0.49927	0.083181	0.169119
96	C	0.480011	0.050563	0.176838
97	C	0.459274	0.037003	0.027799
98	C	0.440449	0.006024	0.019612
99	C	0.419979	0.99312	0.869023
100	C	0.401236	0.962358	0.859994
101	C	0.402902	0.944183	0.001314
102	C	0.423436	0.956186	0.154989
103	C	0.426087	0.938381	0.299827
104	C	0.408357	0.905613	0.300219
105	C	0.383702	0.887177	0.410828
106	C	0.373398	0.856227	0.375786
107	C	0.390406	0.8521	0.239294
108	C	0.38538	0.820809	0.170052
109	C	0.363165	0.793849	0.241376
110	S	0.363807	0.763966	0.138945
111	C	0.393418	0.786908	0
112	C	0.403165	0.816637	0.028973
113	S	0.418224	0.885404	0.152043
114	C	0.446301	0.952003	0.451372
115	C	0.464578	0.983048	0.46211
116	C	0.484552	0.996047	0.614946
117	C	0.502777	0.02687	0.626356
118	C	0.501385	0.044999	0.483857
119	C	0.481774	0.032858	0.325853
120	C	0.462912	0.001308	0.317084
121	C	0.442242	0.987735	0.164004
122	S	0.535546	0.098366	0.089568
123	C	0.596422	0.161586	0.979835
124	S	0.625775	0.196382	0.925393
125	H	0.562114	0.199441	0.119509
126	H	0.515474	0.154601	0.202502
127	H	0.47	0.100177	0.261369
128	H	0.458112	0.051033	0.915533
129	H	0.418389	0.006984	0.757569
130	H	0.385327	0.952464	0.743089
131	H	0.387717	0.9202	0.989972
132	H	0.373784	0.895469	0.513545
133	H	0.354475	0.83826	0.449126
134	H	0.346507	0.789835	0.349245
135	H	0.421896	0.834494	0.953147
136	H	0.447877	0.93794	0.561775
137	H	0.486051	0.982214	0.726902
138	H	0.518157	0.036855	0.745651
139	H	0.515997	0.069045	0.49796
140	H	0.598777	0.142124	0.953305
141	C	0.785669	0.393222	0
142	C	0.805819	0.385119	0.066042
143	C	0.836008	0.409282	0.052251
144	C	0.865022	0.407789	0.109335
145	C	0.864714	0.382594	0.178439
146	C	0.894333	0.387422	0.21144
147	C	0.916239	0.416365	0.169119
148	C	0.949062	0.429719	0.176838
149	C	0.962772	0.422645	0.027799
150	C	0.993948	0.434798	0.019612
151	C	0.006999	0.427337	0.869023
152	C	0.037957	0.439355	0.859994
153	C	0.056183	0.45909	0.001314
154	C	0.044037	0.467511	0.154989
155	C	0.061886	0.487855	0.299827
156	C	0.094852	0.502873	0.300219
157	C	0.113474	0.496765	0.410828
158	C	0.144578	0.51734	0.375786
159	C	0.148631	0.538312	0.239294
160	C	0.180051	0.56446	0.170052
161	C	0.207212	0.569252	0.241376
162	S	0.23719	0.59962	0.138945
163	C	0.214022	0.60616	0
164	C	0.184146	0.586248	0.028973
165	S	0.115077	0.532764	0.152043
166	C	0.048117	0.494347	0.451372
167	C	0.016877	0.481586	0.46211
168	C	0.003734	0.48846	0.614946
169	C	0.972718	0.475869	0.626356
170	C	0.954536	0.45645	0.483857
171	C	0.966817	0.449082	0.325853
172	C	0.998565	0.461766	0.317084
173	C	0.012288	0.454772	0.164004
174	S	0.90082	0.437232	0.089568
175	C	0.837083	0.434703	0.979835
176	S	0.802024	0.429194	0.925393
177	H	0.799278	0.363018	0.119509
178	H	0.844503	0.361378	0.202502
179	H	0.899337	0.37043	0.261369
180	H	0.948702	0.407534	0.915533
181	H	0.993098	0.411967	0.757569
182	H	0.047965	0.433421	0.743089
183	H	0.080322	0.467892	0.989972
184	H	0.105206	0.47868	0.513545
185	H	0.1627	0.516449	0.449126
186	H	0.211324	0.556726	0.349245
187	H	0.166135	0.587056	0.953147
188	H	0.062218	0.509902	0.561775
189	H	0.017604	0.50371	0.726902
190	H	0.962622	0.481186	0.745651
191	H	0.930336	0.447018	0.49796
192	H	0.856597	0.456402	0.953305
