data_C102H51N9O6S18_2023-05-15_14:29:49
#******************************************
#
# CIF file created by Zeo++
# Zeo++ is an open source package to
# analyze microporous materials
#
#*******************************************

_cell_length_a		54.272   
_cell_length_b		54.5704   
_cell_length_c		7   
_cell_angle_alpha		90   
_cell_angle_beta		90   
_cell_angle_gamma		119.761   

_symmetry_space_group_name_H-M		'P1'
_symmetry_Int_Tables_number		1
_symmetry_cell_setting		Monoclinic

loop_
_symmetry_equiv_pos_as_xyz
'+x,+y,+z'

loop_
_atom_site_label
_atom_site_type_symbol
_atom_site_fract_x
_atom_site_fract_y
_atom_site_fract_z
1	C	0.361894	0.67264	0.999995
2	O	0.386933	0.677032	0.999991
3	C	0.339254	0.643287	0.999998
4	C	0.343644	0.621652	0
5	N	0.371673	0.626711	0
6	C	0.310297	0.638077	3e-06
7	O	0.28995	0.612778	5e-06
8	C	0.303345	0.660651	6e-06
9	C	0.276698	0.655204	5e-06
10	N	0.254668	0.626419	0
11	C	0.327074	0.689769	4e-06
12	O	0.32155	0.70929	7e-06
13	C	0.356498	0.696288	0.999999
14	C	0.377416	0.722851	0.999998
15	N	0.373218	0.746432	0
16	H	0.326313	0.60059	1e-06
17	H	0.27108	0.671373	8e-06
18	H	0.398569	0.726645	0.999997
19	C	0.638106	0.32736	0.999995
20	O	0.613067	0.322968	0.999991
21	C	0.660746	0.356713	0.999998
22	C	0.656356	0.378348	0
23	N	0.628327	0.373289	0
24	C	0.689703	0.361923	3e-06
25	O	0.71005	0.387222	5e-06
26	C	0.696655	0.339349	6e-06
27	C	0.723302	0.344796	5e-06
28	N	0.745332	0.373581	0
29	C	0.672926	0.310231	4e-06
30	O	0.67845	0.29071	7e-06
31	C	0.643502	0.303712	0.999999
32	C	0.622584	0.277149	0.999998
33	N	0.626782	0.253568	0
34	H	0.673687	0.39941	1e-06
35	H	0.72892	0.328627	8e-06
36	H	0.601431	0.273355	0.999997
37	C	0.388776	0.609824	0
38	C	0.378668	0.619806	0.141459
39	S	0.386449	0.612126	0.362231
40	C	0.403513	0.595275	0.268418
41	C	0.416053	0.582893	0.390454
42	C	0.416604	0.582351	0.587826
43	C	0.430863	0.568272	0.660461
44	C	0.441107	0.558155	0.518103
45	C	0.456538	0.542917	0.538737
46	C	0.466809	0.532775	0.396172
47	C	0.481074	0.518689	0.468744
48	C	0.481372	0.518395	0.665182
49	C	0.495416	0.504528	0.786356
50	C	0.496043	0.503909	0.982652
51	N	0.510173	0.489956	0.03465
52	C	0.518776	0.481461	0.874941
53	C	0.534159	0.466271	0.884612
54	C	0.542653	0.457884	0.04585
55	C	0.557557	0.443167	0.001728
56	C	0.560286	0.440472	0.807432
57	C	0.574229	0.426704	0.716273
58	C	0.587372	0.413724	0.80672
59	C	0.599115	0.402129	0.676505
60	C	0.594866	0.406326	0.487353
61	C	0.603779	0.397526	0.31769
62	C	0.599488	0.401764	0.128005
63	C	0.611224	0.390176	0
64	C	0.624214	0.377349	0.090145
65	S	0.622196	0.37934	0.332688
66	S	0.576549	0.424414	0.473012
67	S	0.544486	0.456073	0.68251
68	C	0.509691	0.490431	0.718526
69	S	0.464602	0.534954	0.759768
70	S	0.433045	0.566113	0.297719
71	C	0.40298	0.595799	0.070377
72	H	0.36716	0.631169	0.127237
73	H	0.407252	0.591587	0.679086
74	H	0.433309	0.565858	0.811742
75	H	0.464367	0.535187	0.244908
76	H	0.490518	0.509364	0.379384
77	H	0.487746	0.512101	0.090247
78	H	0.513716	0.486458	0.170958
79	H	0.538588	0.461898	0.190573
80	H	0.565823	0.435005	0.109993
81	H	0.588713	0.412398	0.960353
82	H	0.610175	0.391207	0.722357
83	H	0.588406	0.412707	0.08312
84	H	0.634757	0.366939	0.026904
85	H	0.513034	0.48713	0.570559
86	H	0.412375	0.58652	0.979964
87	C	0.390076	0.780207	0
88	C	0.380111	0.760243	0.141459
89	S	0.387778	0.775607	0.362231
90	C	0.404599	0.809307	0.268418
91	C	0.416958	0.834071	0.390454
92	C	0.4175	0.835157	0.587826
93	C	0.431554	0.863316	0.660461
94	C	0.441653	0.883547	0.518103
95	C	0.456864	0.914022	0.538737
96	C	0.466988	0.934307	0.396172
97	C	0.481049	0.962477	0.468744
98	C	0.481343	0.963066	0.665182
99	C	0.495185	0.990799	0.786356
100	C	0.495803	0.992038	0.982652
101	N	0.509731	0.019943	0.03465
102	C	0.518211	0.036933	0.874941
103	C	0.533374	0.067312	0.884612
104	C	0.541746	0.084086	0.04585
105	C	0.556437	0.11352	0.001728
106	C	0.559127	0.118908	0.807432
107	C	0.572871	0.146445	0.716273
108	C	0.585828	0.172402	0.80672
109	C	0.597403	0.195593	0.676505
110	C	0.593212	0.187199	0.487353
111	C	0.601997	0.204801	0.31769
112	C	0.597766	0.196325	0.128005
113	C	0.609334	0.219502	0
114	C	0.622138	0.245155	0.090145
115	S	0.620151	0.241172	0.332688
116	S	0.575156	0.151025	0.473012
117	S	0.543554	0.087707	0.68251
118	C	0.509256	0.018992	0.718526
119	S	0.464812	0.929948	0.759768
120	S	0.433709	0.86763	0.297719
121	C	0.404076	0.808257	0.070377
122	H	0.368768	0.737518	0.127237
123	H	0.40828	0.816687	0.679086
124	H	0.433963	0.868144	0.811742
125	H	0.46458	0.929482	0.244908
126	H	0.490357	0.981127	0.379384
127	H	0.487625	0.975653	0.090247
128	H	0.513223	0.02694	0.170958
129	H	0.53774	0.076059	0.190573
130	H	0.564585	0.129844	0.109993
131	H	0.587151	0.175052	0.960353
132	H	0.608305	0.217435	0.722357
133	H	0.586843	0.17444	0.08312
134	H	0.63253	0.265976	0.026904
135	H	0.512552	0.025594	0.570559
136	H	0.413338	0.826813	0.979964
137	C	0.220708	0.609532	0
138	C	0.240781	0.619513	0.141459
139	S	0.225333	0.61183	0.362231
140	C	0.191448	0.594981	0.268418
141	C	0.166548	0.582598	0.390454
142	C	0.165456	0.582054	0.587826
143	C	0.137143	0.567975	0.660461
144	C	0.1168	0.55786	0.518103
145	C	0.086157	0.542623	0.538737
146	C	0.065762	0.532481	0.396172
147	C	0.037437	0.518396	0.468744
148	C	0.036844	0.518101	0.665182
149	C	0.008959	0.504235	0.786356
150	C	0.007713	0.503615	0.982652
151	N	0.979655	0.489663	0.03465
152	C	0.962572	0.481169	0.874941
153	C	0.932026	0.465979	0.884612
154	C	0.91516	0.457592	0.04585
155	C	0.885565	0.442876	0.001728
156	C	0.880147	0.440182	0.807432
157	C	0.852459	0.426414	0.716273
158	C	0.82636	0.413437	0.80672
159	C	0.803041	0.401841	0.676505
160	C	0.811481	0.406037	0.487353
161	C	0.793783	0.397236	0.31769
162	C	0.802305	0.401473	0.128005
163	C	0.779001	0.389884	0
164	C	0.753207	0.377058	0.090145
165	S	0.757212	0.37905	0.332688
166	S	0.847854	0.424123	0.473012
167	S	0.911519	0.455782	0.68251
168	C	0.980612	0.490139	0.718526
169	S	0.070145	0.53466	0.759768
170	S	0.132805	0.56582	0.297719
171	C	0.192504	0.595507	0.070377
172	H	0.263631	0.630875	0.127237
173	H	0.184027	0.591288	0.679086
174	H	0.132287	0.56556	0.811742
175	H	0.070613	0.534893	0.244908
176	H	0.018684	0.509071	0.379384
177	H	0.024189	0.511808	0.090247
178	H	0.97262	0.486165	0.170958
179	H	0.923231	0.461606	0.190573
180	H	0.869151	0.434714	0.109993
181	H	0.823695	0.412112	0.960353
182	H	0.781079	0.39092	0.722357
183	H	0.82431	0.412415	0.08312
184	H	0.732272	0.366648	0.026904
185	H	0.973973	0.486838	0.570559
186	H	0.173846	0.586229	0.979964
