data_C96H48N6O6S12_2023-05-11_03:34:12
#******************************************
#
# CIF file created by Zeo++
# Zeo++ is an open source package to
# analyze microporous materials
#
#*******************************************

_cell_length_a		49.5944   
_cell_length_b		49.8929   
_cell_length_c		7   
_cell_angle_alpha		90   
_cell_angle_beta		90   
_cell_angle_gamma		119.739   

_symmetry_space_group_name_H-M		'P1'
_symmetry_Int_Tables_number		1
_symmetry_cell_setting		Monoclinic

loop_
_symmetry_equiv_pos_as_xyz
'+x,+y,+z'

loop_
_atom_site_label
_atom_site_type_symbol
_atom_site_fract_x
_atom_site_fract_y
_atom_site_fract_z
1	C	0.364584	0.673198	0.999995
2	O	0.391983	0.678002	0.999991
3	C	0.339824	0.641101	0.999998
4	C	0.344639	0.617443	0
5	N	0.375309	0.622975	0
6	C	0.308138	0.635404	3e-06
7	O	0.285885	0.607739	5e-06
8	C	0.30052	0.660089	6e-06
9	C	0.271362	0.654132	5e-06
10	N	0.247269	0.622656	0
11	C	0.326472	0.69193	4e-06
12	O	0.320418	0.713276	7e-06
13	C	0.358668	0.699057	0.999999
14	C	0.381546	0.728105	0.999998
15	N	0.37694	0.75389	0
16	H	0.325684	0.594411	1e-06
17	H	0.265207	0.671813	8e-06
18	H	0.404692	0.732253	0.999997
19	C	0.635416	0.326802	0.999995
20	O	0.608017	0.321998	0.999991
21	C	0.660176	0.358899	0.999998
22	C	0.655361	0.382557	0
23	N	0.624691	0.377025	0
24	C	0.691862	0.364596	3e-06
25	O	0.714115	0.392261	5e-06
26	C	0.69948	0.339911	6e-06
27	C	0.728638	0.345868	5e-06
28	N	0.752731	0.377344	0
29	C	0.673528	0.30807	4e-06
30	O	0.679582	0.286724	7e-06
31	C	0.641332	0.300943	0.999999
32	C	0.618454	0.271895	0.999998
33	N	0.62306	0.24611	0
34	H	0.674316	0.405589	1e-06
35	H	0.734793	0.328187	8e-06
36	H	0.595308	0.267747	0.999997
37	C	0.394033	0.604509	0
38	C	0.402227	0.59642	0.831578
39	S	0.42197	0.576946	0.872517
40	C	0.419398	0.579493	0.115212
41	C	0.43336	0.565727	0.262599
42	C	0.431282	0.567785	0.457257
43	S	0.448639	0.550671	0.577511
44	C	0.459552	0.539897	0.370368
45	C	0.476938	0.522748	0.374855
46	C	0.485512	0.514293	0.203827
47	C	0.501903	0.498125	0.203466
48	C	0.510342	0.489801	0.374906
49	C	0.52684	0.473529	0.37729
50	C	0.53546	0.465027	0.548598
51	C	0.552849	0.447875	0.544139
52	C	0.562838	0.438026	0.387482
53	C	0.579056	0.422029	0.437063
54	C	0.593086	0.408192	0.2906
55	C	0.591295	0.409962	0.094626
56	C	0.605967	0.395491	0
57	C	0.618486	0.383142	0.122553
58	S	0.612412	0.389129	0.355521
59	C	0.581099	0.420009	0.63181
60	S	0.563731	0.437138	0.751596
61	C	0.526887	0.473483	0.719579
62	C	0.510493	0.489653	0.719714
63	C	0.502053	0.497977	0.548295
64	C	0.485555	0.514249	0.54613
65	C	0.449588	0.549718	0.213515
66	C	0.403753	0.594927	0.164221
67	H	0.397723	0.600856	0.687227
68	H	0.420477	0.578447	0.53732
69	H	0.479655	0.52007	0.066062
70	H	0.507992	0.492119	0.066969
71	H	0.532897	0.467554	0.240784
72	H	0.558693	0.442117	0.24157
73	H	0.580095	0.421011	0.022582
74	H	0.630822	0.370973	0.08829
75	H	0.59192	0.409334	0.711784
76	H	0.532692	0.467758	0.85777
77	H	0.504396	0.495667	0.856201
78	H	0.479537	0.520185	0.683032
79	H	0.453732	0.545623	0.067487
80	H	0.399461	0.599166	0.309645
81	C	0.395371	0.790823	0
82	C	0.403444	0.806993	0.831578
83	S	0.42288	0.845938	0.872517
84	C	0.420338	0.840855	0.115212
85	C	0.434077	0.868391	0.262599
86	C	0.432023	0.864284	0.457257
87	S	0.449105	0.898517	0.577511
88	C	0.459857	0.920052	0.370368
89	C	0.476973	0.954348	0.374855
90	C	0.485412	0.971259	0.203827
91	C	0.501548	0.003592	0.203466
92	C	0.509856	0.020239	0.374906
93	C	0.526097	0.052782	0.37729
94	C	0.534582	0.069786	0.548598
95	C	0.551701	0.104088	0.544139
96	C	0.561531	0.123787	0.387482
97	C	0.577497	0.15578	0.437063
98	C	0.591307	0.183454	0.2906
99	C	0.58954	0.179917	0.094626
100	C	0.603983	0.208858	0
101	C	0.616309	0.233554	0.122553
102	S	0.610333	0.221576	0.355521
103	C	0.579513	0.159814	0.63181
104	S	0.562417	0.125556	0.751596
105	C	0.526142	0.052874	0.719579
106	C	0.510004	0.020536	0.719714
107	C	0.501696	0.003889	0.548295
108	C	0.485455	0.971345	0.54613
109	C	0.450056	0.900405	0.213515
110	C	0.404934	0.809991	0.164221
111	H	0.399016	0.798115	0.687227
112	H	0.421382	0.842965	0.53732
113	H	0.479646	0.959705	0.066062
114	H	0.507542	0.015603	0.066969
115	H	0.53206	0.06473	0.240784
116	H	0.557447	0.115609	0.24157
117	H	0.578513	0.157823	0.022582
118	H	0.628453	0.257889	0.08829
119	H	0.590167	0.181161	0.711784
120	H	0.531856	0.064324	0.85777
121	H	0.504002	0.008509	0.856201
122	H	0.479531	0.959475	0.683032
123	H	0.454142	0.908586	0.067487
124	H	0.400703	0.801519	0.309645
125	C	0.210114	0.60419	0
126	C	0.193847	0.596108	0.831578
127	S	0.154668	0.576637	0.872517
128	C	0.159781	0.579173	0.115212
129	C	0.13208	0.565403	0.262599
130	C	0.136212	0.567453	0.457257
131	S	0.101774	0.550334	0.577511
132	C	0.080109	0.539572	0.370368
133	C	0.045607	0.522425	0.374855
134	C	0.028594	0.51397	0.203827
135	C	0.996067	0.497804	0.203466
136	C	0.979319	0.489481	0.374906
137	C	0.946581	0.47321	0.37729
138	C	0.929476	0.464709	0.548598
139	C	0.894968	0.447559	0.544139
140	C	0.875149	0.437708	0.387482
141	C	0.842965	0.421713	0.437063
142	C	0.815125	0.407876	0.2906
143	C	0.818682	0.409642	0.094626
144	C	0.789568	0.395172	0
145	C	0.764724	0.382826	0.122553
146	S	0.776773	0.388816	0.355521
147	C	0.838906	0.419698	0.63181
148	S	0.87337	0.436827	0.751596
149	C	0.946489	0.473164	0.719579
150	C	0.979021	0.489332	0.719714
151	C	0.995768	0.497656	0.548295
152	C	0.028508	0.513927	0.54613
153	C	0.099874	0.549399	0.213515
154	C	0.190831	0.594603	0.164221
155	H	0.202778	0.60055	0.687227
156	H	0.157659	0.57811	0.53732
157	H	0.040217	0.519746	0.066062
158	H	0.983984	0.491799	0.066969
159	H	0.934561	0.467237	0.240784
160	H	0.883377	0.441795	0.24157
161	H	0.84091	0.420688	0.022582
162	H	0.740242	0.370659	0.08829
163	H	0.817431	0.409026	0.711784
164	H	0.93497	0.467439	0.85777
165	H	0.99112	0.495346	0.856201
166	H	0.040449	0.519862	0.683032
167	H	0.091643	0.545312	0.067487
168	H	0.199354	0.598836	0.309645
