data_C114H54N6O6S24_2023-05-13_10:05:58
#******************************************
#
# CIF file created by Zeo++
# Zeo++ is an open source package to
# analyze microporous materials
#
#*******************************************

_cell_length_a		65.9557   
_cell_length_b		66.2541   
_cell_length_c		7   
_cell_angle_alpha		90   
_cell_angle_beta		90   
_cell_angle_gamma		119.803   

_symmetry_space_group_name_H-M		'P1'
_symmetry_Int_Tables_number		1
_symmetry_cell_setting		Monoclinic

loop_
_symmetry_equiv_pos_as_xyz
'+x,+y,+z'

loop_
_atom_site_label
_atom_site_type_symbol
_atom_site_fract_x
_atom_site_fract_y
_atom_site_fract_z
1	C	0.356839	0.671589	0.999995
2	O	0.377445	0.675208	0.999991
3	C	0.338189	0.647402	0.999998
4	C	0.341786	0.629574	0
5	N	0.364853	0.633743	0
6	C	0.314358	0.643109	3e-06
7	O	0.297598	0.622263	5e-06
8	C	0.308653	0.66171	6e-06
9	C	0.286723	0.657221	5e-06
10	N	0.268575	0.633503	0
11	C	0.328199	0.685703	4e-06
12	O	0.323667	0.701789	7e-06
13	C	0.352415	0.691074	0.999999
14	C	0.369646	0.712963	0.999998
15	N	0.366209	0.732393	0
16	H	0.327511	0.612219	1e-06
17	H	0.282112	0.670544	8e-06
18	H	0.387055	0.716089	0.999997
19	C	0.643161	0.328411	0.999995
20	O	0.622555	0.324792	0.999991
21	C	0.661811	0.352598	0.999998
22	C	0.658214	0.370426	0
23	N	0.635147	0.366257	0
24	C	0.685642	0.356891	3e-06
25	O	0.702402	0.377737	5e-06
26	C	0.691347	0.33829	6e-06
27	C	0.713277	0.342779	5e-06
28	N	0.731425	0.366497	0
29	C	0.671801	0.314297	4e-06
30	O	0.676333	0.298211	7e-06
31	C	0.647585	0.308926	0.999999
32	C	0.630354	0.287037	0.999998
33	N	0.633791	0.267607	0
34	H	0.672489	0.387781	1e-06
35	H	0.717888	0.329456	8e-06
36	H	0.612945	0.283911	0.999997
37	C	0.621086	0.380172	0
38	C	0.62591	0.37354	0.171522
39	S	0.615003	0.381956	0.357276
40	C	0.603694	0.394609	0.207488
41	C	0.591218	0.405826	0.281526
42	C	0.586458	0.408223	0.469864
43	C	0.573722	0.420321	0.490339
44	C	0.56884	0.427086	0.317506
45	C	0.556331	0.439609	0.28373
46	C	0.551301	0.446226	0.110829
47	C	0.538622	0.458381	0.131356
48	C	0.534054	0.460971	0.3198
49	C	0.52168	0.472289	0.393822
50	C	0.51764	0.475414	0.582431
51	C	0.504771	0.487377	0.602884
52	C	0.49906	0.493303	0.429759
53	C	0.486202	0.505471	0.39587
54	C	0.479318	0.510211	0.222952
55	C	0.466884	0.522613	0.243308
56	C	0.464367	0.527273	0.431625
57	C	0.452807	0.539414	0.505411
58	C	0.451567	0.545389	0.692611
59	C	0.438649	0.557296	0.713208
60	C	0.430189	0.560374	0.541526
61	C	0.416331	0.571591	0.513789
62	C	0.403771	0.575602	0.651894
63	C	0.392087	0.587224	0.578967
64	C	0.395876	0.592051	0.385844
65	C	0.386875	0.603584	0.264762
66	C	0.390527	0.608221	0.070699
67	C	0.378914	0.619828	0
68	C	0.366644	0.623969	0.137324
69	S	0.369195	0.613695	0.354564
70	S	0.413716	0.582238	0.297482
71	S	0.438093	0.548525	0.358236
72	S	0.477296	0.516336	0.58023
73	S	0.509593	0.484082	0.2451
74	S	0.545405	0.448434	0.468277
75	S	0.579973	0.418467	0.133083
76	C	0.608432	0.392195	0.018433
77	H	0.635227	0.364229	0.19784
78	H	0.591765	0.401662	0.590332
79	H	0.568495	0.423763	0.627714
80	H	0.556379	0.442638	0.973369
81	H	0.533224	0.464855	0.010886
82	H	0.523565	0.469473	0.703061
83	H	0.500027	0.491309	0.740417
84	H	0.482886	0.505096	0.085618
85	H	0.460196	0.527792	0.122834
86	H	0.459557	0.541538	0.811888
87	H	0.435944	0.563391	0.849225
88	H	0.402726	0.570368	0.7998
89	H	0.381379	0.591715	0.666741
90	H	0.401072	0.603482	0.983304
91	H	0.35634	0.632452	0.121946
92	H	0.603051	0.39877	0.898582
93	C	0.619411	0.239536	0
94	C	0.626041	0.250935	0.171522
95	S	0.617646	0.231716	0.357276
96	C	0.605006	0.207878	0.207488
97	C	0.59381	0.184309	0.281526
98	C	0.591426	0.177193	0.469864
99	C	0.579347	0.152489	0.490339
100	C	0.572584	0.1409	0.317506
101	C	0.560079	0.115999	0.28373
102	C	0.553465	0.104411	0.110829
103	C	0.541329	0.079707	0.131356
104	C	0.538751	0.072588	0.3198
105	C	0.527453	0.049021	0.393822
106	C	0.524336	0.041894	0.582431
107	C	0.512393	0.017193	0.602884
108	C	0.506475	0.005616	0.429759
109	C	0.494327	0.980722	0.39587
110	C	0.489602	0.96916	0.222952
111	C	0.477218	0.944455	0.243308
112	C	0.472556	0.937312	0.431625
113	C	0.46043	0.913734	0.505411
114	C	0.454444	0.90655	0.692611
115	C	0.442558	0.881857	0.713208
116	C	0.439506	0.870385	0.541526
117	C	0.428316	0.845445	0.513789
118	C	0.424344	0.82897	0.651894
119	C	0.412739	0.805786	0.578967
120	C	0.407885	0.804744	0.385844
121	C	0.396357	0.784312	0.264762
122	C	0.391694	0.783322	0.070699
123	C	0.380104	0.760224	0
124	C	0.376001	0.743907	0.137324
125	S	0.386291	0.756676	0.354564
126	S	0.417652	0.832241	0.297482
127	S	0.451354	0.890039	0.358236
128	S	0.483469	0.961051	0.58023
129	S	0.515678	0.025266	0.2451
130	S	0.551275	0.096353	0.468277
131	S	0.581181	0.160547	0.133083
132	C	0.607407	0.214989	0.018433
133	H	0.635339	0.269466	0.19784
134	H	0.597982	0.189	0.590332
135	H	0.575917	0.143867	0.627714
136	H	0.557042	0.113029	0.973369
137	H	0.53486	0.067895	0.010886
138	H	0.530269	0.053699	0.703061
139	H	0.508471	0.008563	0.740417
140	H	0.494716	0.9778	0.085618
141	H	0.472052	0.932651	0.122834
142	H	0.458273	0.918324	0.811888
143	H	0.436459	0.873098	0.849225
144	H	0.429596	0.833146	0.7998
145	H	0.408279	0.790674	0.666741
146	H	0.396403	0.798519	0.983304
147	H	0.367538	0.725221	0.121946
148	H	0.600836	0.203094	0.898582
149	C	0.759141	0.379931	0
150	C	0.747686	0.375164	0.171522
151	S	0.766988	0.385968	0.357276
152	C	0.790937	0.397153	0.207488
153	C	0.81461	0.409504	0.281526
154	C	0.821753	0.414224	0.469864
155	C	0.846568	0.426829	0.490339
156	C	0.858213	0.431653	0.317506
157	C	0.883227	0.444031	0.28373
158	C	0.894871	0.449003	0.110829
159	C	0.919686	0.461552	0.131356
160	C	0.926833	0.466081	0.3198
161	C	0.950505	0.47833	0.393822
162	C	0.957662	0.482331	0.582431
163	C	0.982473	0.495069	0.602884
164	C	0.994102	0.50072	0.429759
165	C	0.019108	0.513447	0.39587
166	C	0.030718	0.520268	0.222952
167	C	0.055535	0.532572	0.243308
168	C	0.062714	0.535054	0.431625
169	C	0.0864	0.546491	0.505411
170	C	0.093627	0.5477	0.692611
171	C	0.11843	0.560486	0.713208
172	C	0.129943	0.56888	0.541526
173	C	0.15499	0.582604	0.513789
174	C	0.171522	0.595067	0.651894
175	C	0.194811	0.606629	0.578967
176	C	0.195876	0.602845	0.385844
177	C	0.216405	0.611743	0.264762
178	C	0.217416	0.608096	0.070699
179	C	0.240619	0.619588	0
180	C	0.256993	0.631763	0.137324
181	S	0.244151	0.629268	0.354564
182	S	0.16827	0.58516	0.297482
183	S	0.110191	0.561075	0.358236
184	S	0.038872	0.522252	0.58023
185	S	0.974366	0.490291	0.2451
186	S	0.902958	0.454852	0.468277
187	S	0.838482	0.420626	0.133083
188	C	0.783798	0.392456	0.018433
189	H	0.729072	0.365945	0.19784
190	H	0.809891	0.408978	0.590332
191	H	0.855225	0.432009	0.627714
192	H	0.886216	0.443972	0.973369
193	H	0.931553	0.466889	0.010886
194	H	0.945803	0.476467	0.703061
195	H	0.99114	0.499768	0.740417
196	H	0.022035	0.516743	0.085618
197	H	0.067389	0.539196	0.122834
198	H	0.081807	0.539777	0.811888
199	H	0.127235	0.563151	0.849225
200	H	0.167316	0.596126	0.7998
201	H	0.20998	0.61725	0.666741
202	H	0.202162	0.597638	0.983304
203	H	0.27576	0.641967	0.121946
204	H	0.795749	0.397775	0.898582
