data_C72H36N12O6S6_2023-05-11_23:39:38
#******************************************
#
# CIF file created by Zeo++
# Zeo++ is an open source package to
# analyze microporous materials
#
#*******************************************

_cell_length_a		42.534   
_cell_length_b		42.8326   
_cell_length_c		7   
_cell_angle_alpha		90   
_cell_angle_beta		90   
_cell_angle_gamma		119.696   

_symmetry_space_group_name_H-M		'P1'
_symmetry_Int_Tables_number		1
_symmetry_cell_setting		Monoclinic

loop_
_symmetry_equiv_pos_as_xyz
'+x,+y,+z'

loop_
_atom_site_label
_atom_site_type_symbol
_atom_site_fract_x
_atom_site_fract_y
_atom_site_fract_z
1	C	0.369765	0.674272	0.999995
2	O	0.401707	0.679864	0.999991
3	C	0.340927	0.6369	0.999998
4	C	0.346566	0.609353	0
5	N	0.382321	0.615795	0
6	C	0.303988	0.630267	3e-06
7	O	0.278069	0.598056	5e-06
8	C	0.29508	0.659008	6e-06
9	C	0.261087	0.652072	5e-06
10	N	0.233027	0.615423	0
11	C	0.325308	0.696081	4e-06
12	O	0.318226	0.720936	7e-06
13	C	0.36284	0.70438	0.999999
14	C	0.389486	0.738202	0.999998
15	N	0.38409	0.768224	0
16	H	0.324487	0.582537	1e-06
17	H	0.253893	0.672658	8e-06
18	H	0.41647	0.743031	0.999997
19	C	0.630235	0.325728	0.999995
20	O	0.598293	0.320136	0.999991
21	C	0.659073	0.3631	0.999998
22	C	0.653434	0.390647	0
23	N	0.617679	0.384205	0
24	C	0.696012	0.369733	3e-06
25	O	0.721931	0.401944	5e-06
26	C	0.70492	0.340992	6e-06
27	C	0.738913	0.347928	5e-06
28	N	0.766973	0.384577	0
29	C	0.674692	0.303919	4e-06
30	O	0.681774	0.279064	7e-06
31	C	0.63716	0.29562	0.999999
32	C	0.610514	0.261798	0.999998
33	N	0.61591	0.231776	0
34	H	0.675513	0.417463	1e-06
35	H	0.746107	0.327342	8e-06
36	H	0.58353	0.256969	0.999997
37	C	0.595828	0.405706	0
38	C	0.578687	0.422604	0.065369
39	C	0.565885	0.435082	0.905844
40	C	0.546385	0.454263	0.918965
41	N	0.537259	0.463311	0.081733
42	C	0.518617	0.481635	0.050658
43	C	0.505056	0.495036	0.191485
44	C	0.486642	0.513133	0.140085
45	C	0.481315	0.518296	0.949347
46	C	0.494874	0.504894	0.80852
47	C	0.513288	0.486797	0.859921
48	S	0.532385	0.467945	0.718723
49	N	0.462677	0.536626	0.918272
50	C	0.453551	0.545674	0.08104
51	C	0.434062	0.564866	0.094159
52	C	0.424265	0.574521	0.257232
53	C	0.404141	0.594336	0.213539
54	C	0.404172	0.594294	0
55	C	0.42132	0.577403	0.934633
56	S	0.467544	0.531984	0.281281
57	C	0.575637	0.425382	0.742771
58	C	0.595791	0.405596	0.786462
59	H	0.574481	0.426841	0.213118
60	H	0.509107	0.491112	0.340879
61	H	0.490823	0.508818	0.659127
62	H	0.429452	0.569418	0.401662
63	H	0.418544	0.621627	0.27167
64	H	0.376665	0.579923	0.271711
65	H	0.42557	0.57321	0.786883
66	H	0.570397	0.430433	0.598341
67	H	0.623246	0.42	0.728036
68	H	0.581379	0.378286	0.728583
69	C	0.593704	0.188402	0
70	C	0.576844	0.154638	0.065369
71	C	0.564395	0.129563	0.905844
72	C	0.545258	0.091194	0.918965
73	N	0.53623	0.073166	0.081733
74	C	0.517947	0.036497	0.050658
75	C	0.504576	0.009754	0.191485
76	C	0.48652	0.973537	0.140085
77	C	0.481369	0.963132	0.949347
78	C	0.494741	0.989875	0.80852
79	C	0.512797	0.026092	0.859921
80	S	0.531607	0.063735	0.718723
81	N	0.463081	0.926463	0.918272
82	C	0.454053	0.908435	0.08104
83	C	0.434904	0.870066	0.094159
84	C	0.425271	0.850772	0.257232
85	C	0.405501	0.811154	0.213539
86	C	0.405543	0.811227	0
87	C	0.422395	0.844992	0.934633
88	S	0.467711	0.935894	0.281281
89	C	0.574074	0.148857	0.742771
90	C	0.593814	0.188474	0.786462
91	H	0.572616	0.146262	0.213118
92	H	0.508491	0.017664	0.340879
93	H	0.490826	0.981965	0.659127
94	H	0.430362	0.860978	0.401662
95	H	0.378013	0.798289	0.27167
96	H	0.420138	0.798278	0.271711
97	H	0.426579	0.853367	0.786883
98	H	0.569035	0.13865	0.598341
99	H	0.579185	0.20134	0.728036
100	H	0.621321	0.20135	0.728583
101	C	0.809906	0.405334	0
102	C	0.843907	0.422201	0.065369
103	C	0.869157	0.434799	0.905844
104	C	0.907795	0.453986	0.918965
105	N	0.925949	0.462966	0.081733
106	C	0.962875	0.48131	0.050658
107	C	0.989806	0.494653	0.191485
108	C	0.026276	0.512773	0.140085
109	C	0.036754	0.518015	0.949347
110	C	0.009823	0.504673	0.80852
111	C	0.973353	0.486554	0.859921
112	S	0.935446	0.467763	0.718723
113	N	0.07368	0.536354	0.918272
114	C	0.091834	0.545334	0.08104
115	C	0.130472	0.564511	0.094159
116	C	0.149902	0.574151	0.257232
117	C	0.189797	0.593953	0.213539
118	C	0.189724	0.593922	0
119	C	0.155722	0.577048	0.934633
120	S	0.064183	0.531565	0.281281
121	C	0.849728	0.425204	0.742771
122	C	0.809833	0.405373	0.786462
123	H	0.852342	0.426339	0.213118
124	H	0.98184	0.490666	0.340879
125	H	0.017789	0.50866	0.659127
126	H	0.139623	0.569047	0.401662
127	H	0.20288	0.579526	0.27167
128	H	0.202634	0.621242	0.271711
129	H	0.147288	0.572866	0.786883
130	H	0.860006	0.43036	0.598341
131	H	0.797006	0.378103	0.728036
132	H	0.796738	0.419807	0.728583
