data_C72H36N6O6S12_2023-05-15_00:13:08
#******************************************
#
# CIF file created by Zeo++
# Zeo++ is an open source package to
# analyze microporous materials
#
#*******************************************

_cell_length_a		40.9114   
_cell_length_b		41.2099   
_cell_length_c		7   
_cell_angle_alpha		90   
_cell_angle_beta		90   
_cell_angle_gamma		119.684   

_symmetry_space_group_name_H-M		'P1'
_symmetry_Int_Tables_number		1
_symmetry_cell_setting		Monoclinic

loop_
_symmetry_equiv_pos_as_xyz
'+x,+y,+z'

loop_
_atom_site_label
_atom_site_type_symbol
_atom_site_fract_x
_atom_site_fract_y
_atom_site_fract_z
1	C	0.371208	0.67457	0.999995
2	O	0.404415	0.680382	0.999991
3	C	0.341236	0.635732	0.999998
4	C	0.347105	0.607104	0
5	N	0.384276	0.613798	0
6	C	0.302833	0.628838	3e-06
7	O	0.275894	0.595363	5e-06
8	C	0.293564	0.658707	6e-06
9	C	0.258226	0.651499	5e-06
10	N	0.229062	0.613412	0
11	C	0.324982	0.697236	4e-06
12	O	0.317613	0.723066	7e-06
13	C	0.364001	0.705861	0.999999
14	C	0.391695	0.741009	0.999998
15	N	0.386078	0.772211	0
16	H	0.324158	0.579235	1e-06
17	H	0.25074	0.672894	8e-06
18	H	0.419748	0.746029	0.999997
19	C	0.628792	0.32543	0.999995
20	O	0.595585	0.319618	0.999991
21	C	0.658764	0.364268	0.999998
22	C	0.652895	0.392896	0
23	N	0.615724	0.386202	0
24	C	0.697167	0.371162	3e-06
25	O	0.724106	0.404637	5e-06
26	C	0.706436	0.341293	6e-06
27	C	0.741774	0.348501	5e-06
28	N	0.770938	0.386588	0
29	C	0.675018	0.302764	4e-06
30	O	0.682387	0.276934	7e-06
31	C	0.635999	0.294139	0.999999
32	C	0.608305	0.258991	0.999998
33	N	0.613922	0.227789	0
34	H	0.675842	0.420765	1e-06
35	H	0.74926	0.327106	8e-06
36	H	0.580252	0.253971	0.999997
37	C	0.593	0.408547	0
38	C	0.613265	0.420537	0.165874
39	C	0.595988	0.433991	0.297242
40	C	0.563214	0.431764	0.226873
41	C	0.538553	0.442805	0.320021
42	C	0.505517	0.439903	0.251189
43	C	0.488481	0.453631	0.381942
44	C	0.508923	0.467486	0.548338
45	C	0.501711	0.483215	0.713137
46	C	0.489604	0.508139	0.714542
47	C	0.484391	0.525865	0.552031
48	C	0.506819	0.541703	0.393313
49	C	0.491381	0.557025	0.26227
50	C	0.45755	0.553328	0.323385
51	C	0.43404	0.565517	0.227674
52	C	0.400491	0.562545	0.290701
53	C	0.384804	0.577574	0.158866
54	C	0.407	0.591453	0
55	S	0.445757	0.586791	0.006605
56	S	0.445455	0.531372	0.541626
57	S	0.547941	0.46206	0.54493
58	S	0.554177	0.413123	0.999584
59	H	0.638978	0.41989	0.193578
60	H	0.60745	0.444794	0.437412
61	H	0.493522	0.428316	0.112918
62	H	0.462286	0.453357	0.353934
63	H	0.505972	0.473597	0.850918
64	H	0.483655	0.516073	0.853137
65	H	0.533323	0.542286	0.370923
66	H	0.505032	0.570267	0.129351
67	H	0.387387	0.550133	0.425973
68	H	0.35881	0.577958	0.181366
69	C	0.590846	0.182714	0
70	C	0.578677	0.190853	0.165874
71	C	0.565278	0.160388	0.297242
72	C	0.567723	0.130167	0.226873
73	C	0.556793	0.094791	0.320021
74	C	0.559917	0.064982	0.251189
75	C	0.546241	0.034483	0.381942
76	C	0.5322	0.040945	0.548338
77	C	0.516451	0.018179	0.713137
78	C	0.491501	0.981431	0.714542
79	C	0.473736	0.95866	0.552031
80	C	0.45769	0.965117	0.393313
81	C	0.442403	0.934615	0.26227
82	C	0.446331	0.904809	0.323385
83	C	0.434241	0.869432	0.227674
84	C	0.437439	0.839184	0.290701
85	C	0.422448	0.808728	0.158866
86	C	0.40837	0.816901	0
87	S	0.412805	0.859889	0.006605
88	S	0.468454	0.914657	0.541626
89	S	0.537399	0.084949	0.54493
90	S	0.586498	0.139746	0.999584
91	H	0.579164	0.216942	0.193578
92	H	0.554358	0.160997	0.437412
93	H	0.571628	0.064625	0.112918
94	H	0.546683	0.008832	0.353934
95	H	0.526082	0.031952	0.850918
96	H	0.483573	0.967662	0.853137
97	H	0.456936	0.990766	0.370923
98	H	0.42902	0.934967	0.129351
99	H	0.449985	0.83855	0.425973
100	H	0.422227	0.782621	0.181366
101	C	0.815569	0.408161	0
102	C	0.807473	0.38803	0.165874
103	C	0.838149	0.405042	0.297242
104	C	0.868478	0.43749	0.226873
105	C	0.90407	0.461825	0.320021
106	C	0.933982	0.494536	0.251189
107	C	0.964693	0.511308	0.381942
108	C	0.958293	0.49099	0.548338
109	C	0.981254	0.498027	0.713137
110	C	0.01831	0.50985	0.714542
111	C	0.041289	0.514897	0.552031
112	C	0.034907	0.492601	0.393313
113	C	0.065631	0.507781	0.26227
114	C	0.095535	0.541284	0.323385
115	C	0.131135	0.564473	0.227674
116	C	0.161486	0.597692	0.290701
117	C	0.192163	0.61312	0.158866
118	C	0.184046	0.591067	0
119	S	0.140853	0.552741	0.006605
120	S	0.085506	0.553393	0.541626
121	S	0.914075	0.452412	0.54493
122	S	0.858741	0.446552	0.999584
123	H	0.781274	0.362589	0.193578
124	H	0.837607	0.39363	0.437412
125	H	0.934265	0.50648	0.112918
126	H	0.990447	0.537232	0.353934
127	H	0.967362	0.493872	0.850918
128	H	0.032187	0.515686	0.853137
129	H	0.009157	0.466368	0.370923
130	H	0.065363	0.494187	0.129351
131	H	0.162043	0.610738	0.425973
132	H	0.218378	0.638842	0.181366
