data_C81H42N6O6S12_2023-05-14_22:59:59
#******************************************
#
# CIF file created by Zeo++
# Zeo++ is an open source package to
# analyze microporous materials
#
#*******************************************

_cell_length_a		48.186   
_cell_length_b		48.4844   
_cell_length_c		7   
_cell_angle_alpha		90   
_cell_angle_beta		90   
_cell_angle_gamma		119.731   

_symmetry_space_group_name_H-M		'P1'
_symmetry_Int_Tables_number		1
_symmetry_cell_setting		Monoclinic

loop_
_symmetry_equiv_pos_as_xyz
'+x,+y,+z'

loop_
_atom_site_label
_atom_site_type_symbol
_atom_site_fract_x
_atom_site_fract_y
_atom_site_fract_z
1	C	0.365497	0.673388	0.999995
2	O	0.393695	0.67833	0.999991
3	C	0.340017	0.640361	0.999998
4	C	0.344977	0.616017	0
5	N	0.376543	0.621709	0
6	C	0.307407	0.634498	3e-06
7	O	0.284508	0.606032	5e-06
8	C	0.299562	0.659898	6e-06
9	C	0.269552	0.653769	5e-06
10	N	0.24476	0.621381	0
11	C	0.326268	0.692661	4e-06
12	O	0.320033	0.714626	7e-06
13	C	0.359403	0.699996	0.999999
14	C	0.382945	0.729885	0.999998
15	N	0.378201	0.756417	0
16	H	0.325472	0.592318	1e-06
17	H	0.263214	0.671962	8e-06
18	H	0.406767	0.734153	0.999997
19	C	0.634503	0.326612	0.999995
20	O	0.606305	0.32167	0.999991
21	C	0.659983	0.359639	0.999998
22	C	0.655023	0.383983	0
23	N	0.623457	0.378291	0
24	C	0.692593	0.365502	3e-06
25	O	0.715492	0.393968	5e-06
26	C	0.700438	0.340102	6e-06
27	C	0.730448	0.346231	5e-06
28	N	0.75524	0.378619	0
29	C	0.673732	0.307339	4e-06
30	O	0.679967	0.285374	7e-06
31	C	0.640597	0.300004	0.999999
32	C	0.617055	0.270115	0.999998
33	N	0.621799	0.243583	0
34	H	0.674528	0.407682	1e-06
35	H	0.736786	0.328038	8e-06
36	H	0.593233	0.265847	0.999997
37	C	0.395817	0.602708	0
38	C	0.392183	0.606297	0.190796
39	S	0.409277	0.589448	0.326687
40	C	0.421701	0.577193	0.128949
41	C	0.439113	0.560026	0.147403
42	C	0.448196	0.551072	0.312746
43	C	0.465107	0.5344	0.276725
44	C	0.468997	0.530567	0.084166
45	C	0.484692	0.515094	0.999733
46	C	0.487586	0.512247	0.810661
47	C	0.505359	0.494726	0.772412
48	C	0.512478	0.4877	0.971132
49	C	0.528955	0.471452	0.029413
50	C	0.535757	0.464738	0.209865
51	C	0.552944	0.447793	0.206877
52	C	0.559246	0.441587	0.024046
53	C	0.576191	0.424883	0.972288
54	C	0.589194	0.412071	0.096886
55	C	0.604183	0.397292	0
56	C	0.602662	0.398783	0.805252
57	S	0.582861	0.418297	0.738807
58	S	0.543944	0.456682	0.859353
59	C	0.500197	0.499804	0.096863
60	S	0.451506	0.54781	0.951302
61	C	0.412596	0.586164	0.962754
62	H	0.380444	0.617872	0.25767
63	H	0.443115	0.556079	0.45529
64	H	0.474045	0.525588	0.389445
65	H	0.478799	0.520915	0.696969
66	H	0.490352	0.472864	0.692588
67	H	0.527336	0.509719	0.692618
68	H	0.528794	0.471598	0.3407
69	H	0.560207	0.440626	0.33532
70	H	0.587988	0.413267	0.250872
71	H	0.612071	0.389504	0.698486
72	H	0.501191	0.498819	0.250569
73	H	0.417759	0.581068	0.820655
74	C	0.397165	0.79442	0
75	C	0.393583	0.787249	0.190796
76	S	0.410398	0.82095	0.326687
77	C	0.422629	0.845452	0.128949
78	C	0.439761	0.879785	0.147403
79	C	0.448698	0.897693	0.312746
80	C	0.465336	0.931037	0.276725
81	C	0.469162	0.938705	0.084166
82	C	0.484604	0.969651	0.999733
83	C	0.487445	0.975351	0.810661
84	C	0.504931	0.010393	0.772412
85	C	0.511943	0.024438	0.971132
86	C	0.528158	0.056928	0.029413
87	C	0.534859	0.070349	0.209865
88	C	0.55177	0.104237	0.206877
89	C	0.557963	0.116655	0.024046
90	C	0.574635	0.150065	0.972288
91	C	0.587421	0.175696	0.096886
92	C	0.60217	0.205252	0
93	C	0.600682	0.202261	0.805252
94	S	0.581208	0.163227	0.738807
95	S	0.542899	0.086476	0.859353
96	C	0.499863	0.000226	0.096863
97	S	0.451953	0.904219	0.951302
98	C	0.413676	0.827506	0.962754
99	H	0.382031	0.764102	0.25767
100	H	0.4437	0.887678	0.45529
101	H	0.47413	0.94866	0.389445
102	H	0.478795	0.958021	0.696969
103	H	0.52695	0.017263	0.692588
104	H	0.489767	0.017264	0.692618
105	H	0.528013	0.056624	0.3407
106	H	0.558923	0.118565	0.33532
107	H	0.586227	0.173311	0.250872
108	H	0.609943	0.220816	0.698486
109	H	0.500846	0.002191	0.250569
110	H	0.418761	0.837692	0.820655
111	C	0.206522	0.602379	0
112	C	0.213738	0.605962	0.190796
113	S	0.179829	0.58911	0.326687
114	C	0.155175	0.576862	0.128949
115	C	0.120629	0.559696	0.147403
116	C	0.102611	0.550742	0.312746
117	C	0.069061	0.534071	0.276725
118	C	0.061345	0.530236	0.084166
119	C	0.030208	0.514762	0.999733
120	C	0.024472	0.511909	0.810661
121	C	0.989214	0.494389	0.772412
122	C	0.975082	0.48737	0.971132
123	C	0.942391	0.471127	0.029413
124	C	0.928887	0.464421	0.209865
125	C	0.89479	0.447478	0.206877
126	C	0.882295	0.441265	0.024046
127	C	0.848678	0.42456	0.972288
128	C	0.822889	0.411741	0.096886
129	C	0.79315	0.396964	0
130	C	0.79616	0.398464	0.805252
131	S	0.835435	0.417984	0.738807
132	S	0.91266	0.45635	0.859353
133	C	0.999444	0.499477	0.096863
134	S	0.096045	0.547479	0.951302
135	C	0.173232	0.585838	0.962754
136	H	0.237028	0.617534	0.25767
137	H	0.112688	0.555751	0.45529
138	H	0.051329	0.525259	0.389445
139	H	0.04191	0.520572	0.696969
140	H	0.982201	0.509381	0.692588
141	H	0.982401	0.472525	0.692618
142	H	0.942697	0.471286	0.3407
143	H	0.880373	0.440317	0.33532
144	H	0.825289	0.412929	0.250872
145	H	0.777489	0.389188	0.698486
146	H	0.997467	0.498498	0.250569
147	H	0.162983	0.580748	0.820655
