data_C84H36N6O6S18_2023-05-12_13:33:46
#******************************************
#
# CIF file created by Zeo++
# Zeo++ is an open source package to
# analyze microporous materials
#
#*******************************************

_cell_length_a		50.723   
_cell_length_b		51.0214   
_cell_length_c		7   
_cell_angle_alpha		90   
_cell_angle_beta		90   
_cell_angle_gamma		119.744   

_symmetry_space_group_name_H-M		'P1'
_symmetry_Int_Tables_number		1
_symmetry_cell_setting		Monoclinic

loop_
_symmetry_equiv_pos_as_xyz
'+x,+y,+z'

loop_
_atom_site_label
_atom_site_type_symbol
_atom_site_fract_x
_atom_site_fract_y
_atom_site_fract_z
1	C	0.36389	0.673054	0.999995
2	O	0.390679	0.677751	0.999991
3	C	0.339676	0.641665	0.999998
4	C	0.344382	0.618529	0
5	N	0.37437	0.623939	0
6	C	0.308695	0.636094	3e-06
7	O	0.286934	0.609039	5e-06
8	C	0.301249	0.660234	6e-06
9	C	0.272739	0.654408	5e-06
10	N	0.249179	0.623627	0
11	C	0.326628	0.691372	4e-06
12	O	0.32071	0.712248	7e-06
13	C	0.358108	0.698343	0.999999
14	C	0.38048	0.72675	0.999998
15	N	0.37598	0.751966	0
16	H	0.325846	0.596005	1e-06
17	H	0.266723	0.671699	8e-06
18	H	0.403111	0.730806	0.999997
19	C	0.63611	0.326946	0.999995
20	O	0.609321	0.322249	0.999991
21	C	0.660324	0.358335	0.999998
22	C	0.655618	0.381471	0
23	N	0.62563	0.376061	0
24	C	0.691305	0.363906	3e-06
25	O	0.713066	0.390961	5e-06
26	C	0.698751	0.339766	6e-06
27	C	0.727261	0.345592	5e-06
28	N	0.750821	0.376373	0
29	C	0.673372	0.308628	4e-06
30	O	0.67929	0.287752	7e-06
31	C	0.641892	0.301657	0.999999
32	C	0.61952	0.27325	0.999998
33	N	0.62402	0.248034	0
34	H	0.674154	0.403995	1e-06
35	H	0.733277	0.328301	8e-06
36	H	0.596889	0.269194	0.999997
37	C	0.607325	0.39412	0
38	C	0.591993	0.409245	0.957857
39	C	0.582884	0.418232	0.127532
40	C	0.564854	0.436019	0.132423
41	C	0.556126	0.44463	0.296133
42	C	0.540089	0.460451	0.255473
43	C	0.537053	0.463446	0.062272
44	C	0.520669	0.479609	0.966518
45	C	0.518654	0.481597	0.771511
46	S	0.500019	0.499981	0.699788
47	C	0.493869	0.506048	0.937747
48	C	0.506131	0.493952	0.062253
49	S	0.499981	0.500019	0.300212
50	C	0.481346	0.518403	0.22849
51	C	0.479331	0.520391	0.033482
52	C	0.462948	0.536554	0.937729
53	C	0.459912	0.539549	0.744528
54	C	0.443874	0.555371	0.703867
55	C	0.435147	0.563981	0.867577
56	C	0.417116	0.581768	0.872468
57	C	0.408159	0.590605	0.710002
58	S	0.388988	0.609519	0.762571
59	C	0.392675	0.60588	0
60	C	0.408007	0.590754	0.042143
61	S	0.446301	0.552976	0.067407
62	S	0.553699	0.447024	0.932594
63	C	0.591841	0.409395	0.289998
64	S	0.611013	0.390482	0.237429
65	H	0.587534	0.413644	0.813555
66	H	0.560742	0.440076	0.439623
67	H	0.531523	0.468901	0.366675
68	H	0.527396	0.472973	0.662176
69	H	0.472604	0.527027	0.337825
70	H	0.468477	0.531099	0.633325
71	H	0.439259	0.559924	0.560377
72	H	0.411714	0.587098	0.562163
73	H	0.412466	0.586356	0.186446
74	H	0.588287	0.412902	0.437837
75	C	0.605363	0.211604	0
76	C	0.590267	0.181353	0.957857
77	C	0.581297	0.163381	0.127532
78	C	0.563543	0.127805	0.132423
79	C	0.55495	0.110585	0.296133
80	C	0.539158	0.078942	0.255473
81	C	0.536169	0.072952	0.062272
82	C	0.520037	0.040626	0.966518
83	C	0.518052	0.036651	0.771511
84	S	0.499703	0.999882	0.699788
85	C	0.493647	0.987747	0.937747
86	C	0.505721	0.011941	0.062253
87	S	0.499665	0.999806	0.300212
88	C	0.481316	0.963038	0.22849
89	C	0.479332	0.959062	0.033482
90	C	0.4632	0.926736	0.937729
91	C	0.46021	0.920746	0.744528
92	C	0.444418	0.889103	0.703867
93	C	0.435825	0.871883	0.867577
94	C	0.418071	0.836307	0.872468
95	C	0.409251	0.818634	0.710002
96	S	0.390373	0.780808	0.762571
97	C	0.394005	0.788084	0
98	C	0.409102	0.818335	0.042143
99	S	0.446809	0.893892	0.067407
100	S	0.55256	0.105796	0.932594
101	C	0.590117	0.181054	0.289998
102	S	0.608995	0.218881	0.237429
103	H	0.585876	0.172556	0.813555
104	H	0.559494	0.119692	0.439623
105	H	0.530724	0.062042	0.366675
106	H	0.52666	0.053898	0.662176
107	H	0.472709	0.94579	0.337825
108	H	0.468644	0.937646	0.633325
109	H	0.439874	0.879997	0.560377
110	H	0.412751	0.825648	0.562163
111	H	0.413492	0.827133	0.186446
112	H	0.586617	0.174041	0.437837
113	C	0.78684	0.393808	0
114	C	0.817269	0.408933	0.957857
115	C	0.835347	0.41792	0.127532
116	C	0.871132	0.435707	0.132423
117	C	0.888453	0.444317	0.296133
118	C	0.920281	0.460139	0.255473
119	C	0.926307	0.463134	0.062272
120	C	0.958823	0.479297	0.966518
121	C	0.962822	0.481285	0.771511
122	S	0.999806	0.499669	0.699788
123	C	0.012012	0.505736	0.937747
124	C	0.987676	0.49364	0.062253
125	S	0.999882	0.499707	0.300212
126	C	0.036867	0.518091	0.22849
127	C	0.040866	0.520079	0.033482
128	C	0.073381	0.536242	0.937729
129	C	0.079407	0.539237	0.744528
130	C	0.111236	0.555058	0.703867
131	C	0.128557	0.563668	0.867577
132	C	0.164342	0.581456	0.872468
133	C	0.182119	0.590292	0.710002
134	S	0.220168	0.609206	0.762571
135	C	0.212848	0.605568	0
136	C	0.18242	0.590443	0.042143
137	S	0.106419	0.552664	0.067407
138	S	0.89327	0.446712	0.932594
139	C	0.81757	0.409083	0.289998
140	S	0.779521	0.39017	0.237429
141	H	0.826118	0.413332	0.813555
142	H	0.879292	0.439764	0.439623
143	H	0.937281	0.468589	0.366675
144	H	0.945473	0.472661	0.662176
145	H	0.054216	0.526715	0.337825
146	H	0.062408	0.530787	0.633325
147	H	0.120396	0.559611	0.560377
148	H	0.175064	0.586786	0.562163
149	H	0.17357	0.586044	0.186446
150	H	0.824625	0.41259	0.437837
