data_C90H36N12O6S18_2023-05-11_05:10:38
#******************************************
#
# CIF file created by Zeo++
# Zeo++ is an open source package to
# analyze microporous materials
#
#*******************************************

_cell_length_a		51.6635   
_cell_length_b		51.9619   
_cell_length_c		7   
_cell_angle_alpha		90   
_cell_angle_beta		90   
_cell_angle_gamma		119.749   

_symmetry_space_group_name_H-M		'P1'
_symmetry_Int_Tables_number		1
_symmetry_cell_setting		Monoclinic

loop_
_symmetry_equiv_pos_as_xyz
'+x,+y,+z'

loop_
_atom_site_label
_atom_site_type_symbol
_atom_site_fract_x
_atom_site_fract_y
_atom_site_fract_z
1	C	0.363334	0.672939	0.999995
2	O	0.389636	0.677551	0.999991
3	C	0.339559	0.642117	0.999998
4	C	0.344176	0.619398	0
5	N	0.373619	0.62471	0
6	C	0.309141	0.636646	3e-06
7	O	0.287774	0.61008	5e-06
8	C	0.301833	0.66035	6e-06
9	C	0.273841	0.65463	5e-06
10	N	0.250707	0.624404	0
11	C	0.326752	0.690926	4e-06
12	O	0.320944	0.711425	7e-06
13	C	0.35766	0.697771	0.999999
14	C	0.379627	0.725665	0.999998
15	N	0.375212	0.750426	0
16	H	0.325976	0.597281	1e-06
17	H	0.267936	0.671608	8e-06
18	H	0.401847	0.729648	0.999997
19	C	0.636666	0.327061	0.999995
20	O	0.610364	0.322449	0.999991
21	C	0.660441	0.357883	0.999998
22	C	0.655824	0.380602	0
23	N	0.626381	0.37529	0
24	C	0.690859	0.363354	3e-06
25	O	0.712226	0.38992	5e-06
26	C	0.698167	0.33965	6e-06
27	C	0.726159	0.34537	5e-06
28	N	0.749293	0.375596	0
29	C	0.673248	0.309074	4e-06
30	O	0.679056	0.288575	7e-06
31	C	0.64234	0.302229	0.999999
32	C	0.620373	0.274335	0.999998
33	N	0.624788	0.249574	0
34	H	0.674024	0.402719	1e-06
35	H	0.732064	0.328392	8e-06
36	H	0.598153	0.270352	0.999997
37	C	0.391589	0.606977	0
38	C	0.382159	0.616275	0.154501
39	C	0.390464	0.608077	0.32911
40	C	0.405906	0.592848	0.301415
41	C	0.417679	0.581231	0.4447
42	C	0.433084	0.56603	0.416826
43	C	0.441427	0.557798	0.59105
44	C	0.459118	0.540343	0.60015
45	N	0.467154	0.532413	0.442431
46	C	0.482285	0.517482	0.486693
47	C	0.494181	0.505744	0.355742
48	C	0.509011	0.491109	0.419873
49	C	0.512366	0.4878	0.61436
50	C	0.500469	0.499539	0.745308
51	C	0.485638	0.514173	0.681167
52	S	0.469164	0.53043	0.80914
53	N	0.527499	0.472867	0.65868
54	C	0.535525	0.464946	0.500857
55	C	0.553215	0.447489	0.507864
56	C	0.560889	0.439916	0.678386
57	S	0.579868	0.421187	0.645261
58	C	0.578179	0.422853	0.400125
59	C	0.59126	0.409945	0.27649
60	C	0.606304	0.395092	0.328331
61	C	0.616251	0.385278	0.168189
62	C	0.608411	0.393023	0
63	S	0.589592	0.411598	0.03093
64	C	0.563153	0.437682	0.347945
65	S	0.525485	0.474854	0.291874
66	C	0.432175	0.566928	0.748284
67	S	0.413633	0.585223	0.685325
68	S	0.409966	0.58885	0.06041
69	H	0.370015	0.628253	0.145288
70	H	0.38517	0.613295	0.468508
71	H	0.438392	0.560793	0.277435
72	H	0.491671	0.508221	0.203831
73	H	0.502978	0.497063	0.897212
74	H	0.556221	0.444523	0.821125
75	H	0.610192	0.39125	0.475017
76	H	0.628387	0.373298	0.178249
77	H	0.559413	0.441372	0.20071
78	H	0.435211	0.563932	0.897825
79	C	0.392912	0.785892	0
80	C	0.383632	0.767289	0.154501
81	C	0.391814	0.783682	0.32911
82	C	0.407015	0.814149	0.301415
83	C	0.41861	0.837382	0.4447
84	C	0.433782	0.867785	0.416826
85	C	0.441999	0.88425	0.59105
86	C	0.459422	0.919162	0.60015
87	N	0.467337	0.935022	0.442431
88	C	0.48224	0.964884	0.486693
89	C	0.493957	0.988361	0.355742
90	C	0.508564	0.01763	0.419873
91	C	0.511868	0.02425	0.61436
92	C	0.50015	0.000771	0.745308
93	C	0.485543	0.971502	0.681167
94	S	0.469316	0.938988	0.80914
95	N	0.526773	0.054116	0.65868
96	C	0.534679	0.069956	0.500857
97	C	0.552103	0.104869	0.507864
98	C	0.559662	0.120014	0.678386
99	S	0.578356	0.157472	0.645261
100	C	0.576693	0.154139	0.400125
101	C	0.589578	0.179956	0.27649
102	C	0.604403	0.209654	0.328331
103	C	0.614199	0.229284	0.168189
104	C	0.606468	0.213802	0
105	S	0.587927	0.176656	0.03093
106	C	0.561892	0.124483	0.347945
107	S	0.524789	0.050141	0.291874
108	C	0.432887	0.865991	0.748284
109	S	0.414625	0.829399	0.685325
110	S	0.411005	0.822153	0.06041
111	H	0.371676	0.743327	0.145288
112	H	0.386606	0.77324	0.468508
113	H	0.43901	0.87826	0.277435
114	H	0.491484	0.983407	0.203831
115	H	0.502621	0.005723	0.897212
116	H	0.555064	0.110802	0.821125
117	H	0.608237	0.217332	0.475017
118	H	0.626156	0.253238	0.178249
119	H	0.558209	0.117103	0.20071
120	H	0.435877	0.871983	0.897825
121	C	0.215036	0.606671	0
122	C	0.233746	0.615977	0.154501
123	C	0.217259	0.607781	0.32911
124	C	0.186616	0.592544	0.301415
125	C	0.163249	0.580927	0.4447
126	C	0.13267	0.565725	0.416826
127	C	0.11611	0.557492	0.59105
128	C	0.080997	0.540035	0.60015
129	N	0.065046	0.532105	0.442431
130	C	0.035011	0.517174	0.486693
131	C	0.0114	0.505436	0.355742
132	C	0.981962	0.490801	0.419873
133	C	0.975304	0.487491	0.61436
134	C	0.998918	0.49923	0.745308
135	C	0.028356	0.513865	0.681167
136	S	0.061057	0.530122	0.80914
137	N	0.945266	0.472558	0.65868
138	C	0.929334	0.464638	0.500857
139	C	0.89422	0.447182	0.507864
140	C	0.878987	0.43961	0.678386
141	S	0.841313	0.420881	0.645261
142	C	0.844665	0.422548	0.400125
143	C	0.8187	0.40964	0.27649
144	C	0.78883	0.394794	0.328331
145	C	0.769087	0.384979	0.168189
146	C	0.784658	0.392716	0
147	S	0.822018	0.411286	0.03093
148	C	0.874492	0.437376	0.347945
149	S	0.949263	0.474546	0.291874
150	C	0.134475	0.566622	0.748284
151	S	0.171279	0.584919	0.685325
152	S	0.178566	0.588537	0.06041
153	H	0.257846	0.62796	0.145288
154	H	0.227761	0.613005	0.468508
155	H	0.122136	0.560487	0.277435
156	H	0.016382	0.507913	0.203831
157	H	0.993938	0.496755	0.897212
158	H	0.888253	0.444216	0.821125
159	H	0.781108	0.390958	0.475017
160	H	0.744995	0.373004	0.178249
161	H	0.881915	0.441066	0.20071
162	H	0.128449	0.563626	0.897825
