data_C96H48N6O6S12_2023-05-13_07:21:05
#******************************************
#
# CIF file created by Zeo++
# Zeo++ is an open source package to
# analyze microporous materials
#
#*******************************************

_cell_length_a		52.4179   
_cell_length_b		52.7164   
_cell_length_c		7   
_cell_angle_alpha		90   
_cell_angle_beta		90   
_cell_angle_gamma		119.753   

_symmetry_space_group_name_H-M		'P1'
_symmetry_Int_Tables_number		1
_symmetry_cell_setting		Monoclinic

loop_
_symmetry_equiv_pos_as_xyz
'+x,+y,+z'

loop_
_atom_site_label
_atom_site_type_symbol
_atom_site_fract_x
_atom_site_fract_y
_atom_site_fract_z
1	C	0.362903	0.672849	0.999995
2	O	0.388827	0.677396	0.999991
3	C	0.339467	0.642467	0.999998
4	C	0.344017	0.620073	0
5	N	0.373036	0.625309	0
6	C	0.309487	0.637074	3e-06
7	O	0.288425	0.610888	5e-06
8	C	0.302286	0.66044	6e-06
9	C	0.274697	0.654802	5e-06
10	N	0.251893	0.625007	0
11	C	0.326849	0.69058	4e-06
12	O	0.321126	0.710786	7e-06
13	C	0.357312	0.697327	0.999999
14	C	0.378965	0.724823	0.999998
15	N	0.374615	0.74923	0
16	H	0.326077	0.598271	1e-06
17	H	0.268878	0.671538	8e-06
18	H	0.400865	0.728749	0.999997
19	C	0.637097	0.327151	0.999995
20	O	0.611173	0.322604	0.999991
21	C	0.660533	0.357533	0.999998
22	C	0.655983	0.379927	0
23	N	0.626964	0.374691	0
24	C	0.690513	0.362926	3e-06
25	O	0.711575	0.389112	5e-06
26	C	0.697714	0.33956	6e-06
27	C	0.725303	0.345198	5e-06
28	N	0.748107	0.374993	0
29	C	0.673151	0.30942	4e-06
30	O	0.678874	0.289214	7e-06
31	C	0.642688	0.302673	0.999999
32	C	0.621035	0.275177	0.999998
33	N	0.625385	0.25077	0
34	H	0.673923	0.401729	1e-06
35	H	0.731122	0.328462	8e-06
36	H	0.599135	0.271251	0.999997
37	C	0.609253	0.39217	0
38	C	0.612981	0.388481	0.189528
39	C	0.600066	0.401224	0.307279
40	C	0.58697	0.414156	0.203512
41	C	0.57204	0.42889	0.280333
42	C	0.568085	0.432779	0.471013
43	C	0.552441	0.448219	0.499575
44	C	0.544445	0.456125	0.330774
45	C	0.528147	0.472213	0.302445
46	C	0.521577	0.478695	0.120781
47	C	0.506171	0.493903	0.09819
48	C	0.496749	0.503204	0.256976
49	C	0.481223	0.518529	0.236524
50	C	0.471637	0.527992	0.394926
51	C	0.455259	0.544158	0.375637
52	C	0.44456	0.554718	0.517421
53	C	0.42979	0.569296	0.445047
54	C	0.429214	0.569863	0.247878
55	C	0.416231	0.582678	0.125929
56	C	0.415649	0.583253	0.927761
57	C	0.400885	0.597824	0.854663
58	C	0.390747	0.60783	0
59	S	0.398556	0.600121	0.219338
60	S	0.44679	0.552515	0.155465
61	C	0.478208	0.521508	0.576624
62	C	0.493611	0.506305	0.599443
63	C	0.503032	0.497004	0.440642
64	C	0.518559	0.481679	0.460878
65	S	0.556486	0.444255	0.140294
66	S	0.59079	0.410398	0.962052
67	H	0.624235	0.377368	0.242692
68	H	0.600514	0.400773	0.461873
69	H	0.575959	0.424997	0.587552
70	H	0.547465	0.453119	0.640251
71	H	0.528238	0.472118	0.991441
72	H	0.501629	0.498384	0.954199
73	H	0.476758	0.522935	0.092245
74	H	0.446993	0.552317	0.668819
75	H	0.420107	0.578853	0.53635
76	H	0.425361	0.573668	0.836922
77	H	0.398068	0.600604	0.704295
78	H	0.4715	0.52813	0.705441
79	H	0.498151	0.501825	0.7434
80	H	0.523079	0.47722	0.604774
81	C	0.607326	0.215508	0
82	C	0.611009	0.222877	0.189528
83	C	0.59829	0.197387	0.307279
84	C	0.585381	0.17153	0.203512
85	C	0.570674	0.14206	0.280333
86	C	0.566792	0.134267	0.471013
87	C	0.55138	0.103387	0.499575
88	C	0.543489	0.08759	0.330774
89	C	0.52743	0.055416	0.302445
90	C	0.52096	0.04245	0.120781
91	C	0.50578	0.012036	0.09819
92	C	0.496496	0.993436	0.256976
93	C	0.4812	0.962788	0.236524
94	C	0.471754	0.943864	0.394926
95	C	0.455618	0.911533	0.375637
96	C	0.445077	0.890415	0.517421
97	C	0.430525	0.861257	0.445047
98	C	0.429959	0.860123	0.247878
99	C	0.417168	0.834494	0.125929
100	C	0.416595	0.833344	0.927761
101	C	0.40205	0.804202	0.854663
102	C	0.392063	0.78419	0
103	S	0.399757	0.799606	0.219338
104	S	0.447276	0.894818	0.155465
105	C	0.478226	0.956833	0.576624
106	C	0.493401	0.987238	0.599443
107	C	0.502685	0.005838	0.440642
108	C	0.517982	0.036487	0.460878
109	S	0.555337	0.111344	0.140294
110	S	0.589132	0.179058	0.962052
111	H	0.622101	0.245097	0.242692
112	H	0.59874	0.198281	0.461873
113	H	0.57456	0.149821	0.587552
114	H	0.54649	0.093576	0.640251
115	H	0.527525	0.055601	0.991441
116	H	0.501307	0.003073	0.954199
117	H	0.476802	0.953975	0.092245
118	H	0.447474	0.895217	0.668819
119	H	0.420986	0.842145	0.53635
120	H	0.426162	0.852515	0.836922
121	H	0.399275	0.798642	0.704295
122	H	0.471616	0.94359	0.705441
123	H	0.497873	0.9962	0.7434
124	H	0.522433	0.045407	0.604774
125	C	0.782964	0.391868	0
126	C	0.775554	0.388189	0.189528
127	C	0.801188	0.400936	0.307279
128	C	0.827192	0.413861	0.203512
129	C	0.85683	0.428597	0.280333
130	C	0.864667	0.4325	0.471013
131	C	0.895723	0.447941	0.499575
132	C	0.911609	0.455832	0.330774
133	C	0.943967	0.471918	0.302445
134	C	0.957006	0.478402	0.120781
135	C	0.987593	0.493608	0.09819
136	C	0.006299	0.502907	0.256976
137	C	0.037121	0.51823	0.236524
138	C	0.056153	0.527691	0.394926
139	C	0.088667	0.543856	0.375637
140	C	0.109906	0.554415	0.517421
141	C	0.139229	0.568993	0.445047
142	C	0.14037	0.569561	0.247878
143	C	0.166145	0.582375	0.125929
144	C	0.1673	0.58295	0.927761
145	C	0.196608	0.597521	0.854663
146	C	0.216734	0.607528	0
147	S	0.201231	0.59982	0.219338
148	S	0.105478	0.552214	0.155465
149	C	0.04311	0.521206	0.576624
150	C	0.012532	0.506004	0.599443
151	C	0.993826	0.496705	0.440642
152	C	0.963003	0.481381	0.460878
153	S	0.887721	0.443948	0.140294
154	S	0.819622	0.410091	0.962052
155	H	0.753207	0.377082	0.242692
156	H	0.80029	0.400494	0.461873
157	H	0.849025	0.424728	0.587552
158	H	0.905589	0.452852	0.640251
159	H	0.94378	0.471828	0.991441
160	H	0.996607	0.49809	0.954199
161	H	0.045984	0.522637	0.092245
162	H	0.105077	0.552014	0.668819
163	H	0.15845	0.578549	0.53635
164	H	0.148021	0.573365	0.836922
165	H	0.202201	0.600301	0.704295
166	H	0.056428	0.527827	0.705441
167	H	0.003519	0.501522	0.7434
168	H	0.954032	0.47692	0.604774
