data_C60H36N6O6S3_2023-05-11_01:11:07
#******************************************
#
# CIF file created by Zeo++
# Zeo++ is an open source package to
# analyze microporous materials
#
#*******************************************

_cell_length_a		34.2839   
_cell_length_b		34.5825   
_cell_length_c		7   
_cell_angle_alpha		90   
_cell_angle_beta		90   
_cell_angle_gamma		119.623   

_symmetry_space_group_name_H-M		'P1'
_symmetry_Int_Tables_number		1
_symmetry_cell_setting		Monoclinic

loop_
_symmetry_equiv_pos_as_xyz
'+x,+y,+z'

loop_
_atom_site_label
_atom_site_type_symbol
_atom_site_fract_x
_atom_site_fract_y
_atom_site_fract_z
1	C	0.378518	0.676079	0.999995
2	O	0.418136	0.683001	0.999991
3	C	0.342808	0.629825	0.999998
4	C	0.349854	0.595732	0
5	N	0.394202	0.603705	0
6	C	0.296992	0.621615	3e-06
7	O	0.264895	0.581749	5e-06
8	C	0.285888	0.657187	6e-06
9	C	0.243728	0.648603	5e-06
10	N	0.208982	0.603245	0
11	C	0.323322	0.703072	4e-06
12	O	0.314492	0.733834	7e-06
13	C	0.369872	0.713344	0.999999
14	C	0.402868	0.755203	0.999998
15	N	0.396119	0.792361	0
16	H	0.322512	0.562542	1e-06
17	H	0.234765	0.674083	8e-06
18	H	0.436336	0.76118	0.999997
19	C	0.621482	0.323921	0.999995
20	O	0.581864	0.316999	0.999991
21	C	0.657192	0.370175	0.999998
22	C	0.650146	0.404268	0
23	N	0.605798	0.396295	0
24	C	0.703008	0.378385	3e-06
25	O	0.735105	0.418251	5e-06
26	C	0.714112	0.342813	6e-06
27	C	0.756272	0.351397	5e-06
28	N	0.791018	0.396755	0
29	C	0.676678	0.296928	4e-06
30	O	0.685508	0.266166	7e-06
31	C	0.630128	0.286656	0.999999
32	C	0.597132	0.244797	0.999998
33	N	0.603881	0.207639	0
34	H	0.677488	0.437458	1e-06
35	H	0.765235	0.325917	8e-06
36	H	0.563664	0.23882	0.999997
37	C	0.57865	0.422907	0
38	C	0.583956	0.417717	0.18584
39	C	0.563325	0.437941	0.296672
40	C	0.545266	0.455632	0.179227
41	C	0.521602	0.478826	0.221999
42	C	0.513082	0.487177	0.40528
43	S	0.484142	0.515542	0.410989
44	C	0.48201	0.517635	0.165381
45	C	0.46013	0.539084	0.077775
46	C	0.457325	0.541861	0.886586
47	C	0.433519	0.565193	0.838834
48	C	0.42135	0.577093	0
49	C	0.436749	0.56198	0.170262
50	C	0.503543	0.496527	0.085007
51	C	0.553356	0.447693	0.974219
52	H	0.600799	0.401216	0.246435
53	H	0.563134	0.438138	0.450865
54	H	0.522306	0.478135	0.53877
55	H	0.470405	0.529063	0.778478
56	H	0.42698	0.571622	0.694862
57	H	0.408285	0.538547	0.257442
58	H	0.460241	0.590258	0.257537
59	H	0.506186	0.493936	0.931934
60	H	0.521734	0.427315	0.898141
61	H	0.57374	0.479074	0.898105
62	C	0.576409	0.153957	0
63	C	0.581584	0.164349	0.18584
64	C	0.561416	0.123902	0.296672
65	C	0.543775	0.088508	0.179227
66	C	0.520647	0.042119	0.221999
67	C	0.512319	0.025417	0.40528
68	S	0.484033	0.968684	0.410989
69	C	0.481947	0.964502	0.165381
70	C	0.460557	0.921605	0.077775
71	C	0.457788	0.916079	0.886586
72	C	0.434522	0.869412	0.838834
73	C	0.422655	0.845584	0
74	C	0.437727	0.875791	0.170262
75	C	0.502995	0.006717	0.085007
76	C	0.551692	0.104378	0.974219
77	H	0.598038	0.197359	0.246435
78	H	0.56122	0.123518	0.450865
79	H	0.521335	0.0435	0.53877
80	H	0.470551	0.941698	0.778478
81	H	0.428111	0.856574	0.694862
82	H	0.46149	0.870935	0.257442
83	H	0.409131	0.870928	0.257537
84	H	0.505579	0.011899	0.931934
85	H	0.572409	0.09337	0.898141
86	H	0.520002	0.093366	0.898105
87	C	0.844244	0.422447	0
88	C	0.833763	0.417245	0.18584
89	C	0.874561	0.437468	0.296672
90	C	0.910262	0.45517	0.179227
91	C	0.957054	0.478365	0.221999
92	C	0.973902	0.486717	0.40528
93	S	0.031127	0.515084	0.410989
94	C	0.035345	0.517174	0.165381
95	C	0.078616	0.538621	0.077775
96	C	0.08419	0.541371	0.886586
97	C	0.131262	0.564705	0.838834
98	C	0.155297	0.576633	0
99	C	0.124827	0.561539	0.170262
100	C	0.992764	0.496067	0.085007
101	C	0.894255	0.44724	0.974219
102	H	0.800466	0.400736	0.246435
103	H	0.874948	0.437655	0.450865
104	H	0.955661	0.477675	0.53877
105	H	0.058348	0.528549	0.778478
106	H	0.144212	0.571115	0.694862
107	H	0.129527	0.589829	0.257442
108	H	0.129931	0.538124	0.257537
109	H	0.987537	0.493476	0.931934
110	H	0.90516	0.478626	0.898141
111	H	0.905561	0.426871	0.898105
