data_C84H36N6O6S18_2023-05-11_14:14:38
#******************************************
#
# CIF file created by Zeo++
# Zeo++ is an open source package to
# analyze microporous materials
#
#*******************************************

_cell_length_a		50.4335   
_cell_length_b		50.7319   
_cell_length_c		7   
_cell_angle_alpha		90   
_cell_angle_beta		90   
_cell_angle_gamma		119.743   

_symmetry_space_group_name_H-M		'P1'
_symmetry_Int_Tables_number		1
_symmetry_cell_setting		Monoclinic

loop_
_symmetry_equiv_pos_as_xyz
'+x,+y,+z'

loop_
_atom_site_label
_atom_site_type_symbol
_atom_site_fract_x
_atom_site_fract_y
_atom_site_fract_z
1	C	0.364065	0.673091	0.999995
2	O	0.391008	0.677815	0.999991
3	C	0.339714	0.641523	0.999998
4	C	0.344447	0.618255	0
5	N	0.374607	0.623696	0
6	C	0.308555	0.63592	3e-06
7	O	0.28667	0.608711	5e-06
8	C	0.301065	0.660197	6e-06
9	C	0.272392	0.654339	5e-06
10	N	0.248697	0.623382	0
11	C	0.326589	0.691513	4e-06
12	O	0.320637	0.712507	7e-06
13	C	0.358249	0.698523	0.999999
14	C	0.380749	0.727092	0.999998
15	N	0.376222	0.752452	0
16	H	0.325805	0.595603	1e-06
17	H	0.26634	0.671728	8e-06
18	H	0.40351	0.731171	0.999997
19	C	0.635935	0.326909	0.999995
20	O	0.608992	0.322185	0.999991
21	C	0.660286	0.358477	0.999998
22	C	0.655553	0.381745	0
23	N	0.625393	0.376304	0
24	C	0.691445	0.36408	3e-06
25	O	0.71333	0.391289	5e-06
26	C	0.698935	0.339803	6e-06
27	C	0.727608	0.345661	5e-06
28	N	0.751303	0.376618	0
29	C	0.673411	0.308487	4e-06
30	O	0.679363	0.287493	7e-06
31	C	0.641751	0.301477	0.999999
32	C	0.619251	0.272908	0.999998
33	N	0.623778	0.247548	0
34	H	0.674195	0.404397	1e-06
35	H	0.73366	0.328272	8e-06
36	H	0.59649	0.268829	0.999997
37	C	0.606982	0.394466	0
38	C	0.598703	0.402633	0.833575
39	S	0.579384	0.421692	0.87848
40	C	0.582058	0.419053	0.122835
41	C	0.569139	0.431797	0.25423
42	C	0.553565	0.44716	0.211351
43	C	0.543912	0.456682	0.37667
44	C	0.525709	0.474639	0.37378
45	C	0.516705	0.483522	0.535757
46	C	0.500737	0.499273	0.487515
47	C	0.498173	0.501803	0.295128
48	C	0.482206	0.517554	0.246927
49	C	0.4732	0.526438	0.408879
50	C	0.454998	0.544392	0.403435
51	C	0.445995	0.553274	0.565124
52	S	0.426812	0.572197	0.512627
53	C	0.430132	0.568922	0.270308
54	C	0.417585	0.581299	0.133445
55	C	0.401895	0.596777	0.169836
56	C	0.393018	0.605534	0
57	C	0.401755	0.596915	0.837218
58	S	0.420938	0.577991	0.890374
59	C	0.445818	0.553449	0.234078
60	S	0.483603	0.516175	0.616698
61	S	0.515305	0.484903	0.165945
62	C	0.552456	0.448254	0.542117
63	S	0.571779	0.429192	0.497845
64	C	0.597638	0.403684	0.165931
65	H	0.602937	0.398457	0.688342
66	H	0.549198	0.451468	0.066433
67	H	0.520963	0.479321	0.680957
68	H	0.477933	0.521768	0.101777
69	H	0.449597	0.54972	0.712951
70	H	0.397	0.601606	0.312155
71	H	0.397924	0.600694	0.690267
72	H	0.450551	0.54878	0.091061
73	H	0.548485	0.452172	0.68837
74	H	0.602134	0.399248	0.310254
75	C	0.605015	0.210911	0
76	C	0.596864	0.194577	0.833575
77	S	0.577841	0.15646	0.87848
78	C	0.580475	0.161738	0.122835
79	C	0.567755	0.136249	0.25423
80	C	0.552421	0.105523	0.211351
81	C	0.542917	0.086479	0.37667
82	C	0.524995	0.050566	0.37378
83	C	0.516129	0.0328	0.535757
84	C	0.500408	0.001296	0.487515
85	C	0.497883	0.996238	0.295128
86	C	0.482162	0.964736	0.246927
87	C	0.473295	0.946968	0.408879
88	C	0.455375	0.911058	0.403435
89	C	0.44651	0.893295	0.565124
90	S	0.427623	0.855449	0.512627
91	C	0.430891	0.861998	0.270308
92	C	0.418538	0.837244	0.133445
93	C	0.40309	0.806289	0.169836
94	C	0.39435	0.788775	0
95	C	0.402952	0.806013	0.837218
96	S	0.42184	0.843861	0.890374
97	C	0.446336	0.892946	0.234078
98	S	0.483538	0.967492	0.616698
99	S	0.514751	0.030038	0.165945
100	C	0.55133	0.103335	0.542117
101	S	0.570355	0.141458	0.497845
102	C	0.595815	0.192476	0.165931
103	H	0.601032	0.20293	0.688342
104	H	0.548122	0.096908	0.066433
105	H	0.520322	0.041202	0.680957
106	H	0.477956	0.956308	0.101777
107	H	0.450057	0.900403	0.712951
108	H	0.39827	0.796632	0.312155
109	H	0.39918	0.798455	0.690267
110	H	0.450996	0.902284	0.091061
111	H	0.547419	0.0955	0.68837
112	H	0.600242	0.201346	0.310254
113	C	0.787528	0.394152	0
114	C	0.803959	0.402319	0.833575
115	S	0.842301	0.421377	0.87848
116	C	0.836992	0.418739	0.122835
117	C	0.862632	0.431483	0.25423
118	C	0.89354	0.446846	0.211351
119	C	0.912696	0.456368	0.37667
120	C	0.948821	0.474325	0.37378
121	C	0.966692	0.483208	0.535757
122	C	0.998382	0.498959	0.487515
123	C	0.00347	0.501489	0.295128
124	C	0.035158	0.51724	0.246927
125	C	0.053031	0.526124	0.408879
126	C	0.089153	0.544079	0.403435
127	C	0.107021	0.55296	0.565124
128	S	0.145091	0.571883	0.512627
129	C	0.138503	0.568609	0.270308
130	C	0.163403	0.580986	0.133445
131	C	0.194541	0.596463	0.169836
132	C	0.212159	0.60522	0
133	C	0.194819	0.596601	0.837218
134	S	0.156747	0.577677	0.890374
135	C	0.107372	0.553135	0.234078
136	S	0.032386	0.515862	0.616698
137	S	0.96947	0.484589	0.165945
138	C	0.89574	0.44794	0.542117
139	S	0.857392	0.428879	0.497845
140	C	0.806073	0.40337	0.165931
141	H	0.795557	0.398143	0.688342
142	H	0.902206	0.451154	0.066433
143	H	0.958241	0.479007	0.680957
144	H	0.043636	0.521454	0.101777
145	H	0.099871	0.549406	0.712951
146	H	0.204256	0.601292	0.312155
147	H	0.202422	0.600381	0.690267
148	H	0.097979	0.548466	0.091061
149	H	0.903622	0.451858	0.68837
150	H	0.79715	0.398935	0.310254
