data_C102H48N12O6S12_2023-05-13_11:08:09
#******************************************
#
# CIF file created by Zeo++
# Zeo++ is an open source package to
# analyze microporous materials
#
#*******************************************

_cell_length_a		42.377   
_cell_length_b		42.6755   
_cell_length_c		7   
_cell_angle_alpha		90   
_cell_angle_beta		90   
_cell_angle_gamma		119.694   

_symmetry_space_group_name_H-M		'P1'
_symmetry_Int_Tables_number		1
_symmetry_cell_setting		Monoclinic

loop_
_symmetry_equiv_pos_as_xyz
'+x,+y,+z'

loop_
_atom_site_label
_atom_site_type_symbol
_atom_site_fract_x
_atom_site_fract_y
_atom_site_fract_z
1	C	0.3699	0.6743	0.999995
2	O	0.40196	0.679913	0.999991
3	C	0.340956	0.636791	0.999998
4	C	0.346616	0.609143	0
5	N	0.382503	0.615608	0
6	C	0.30388	0.630133	3e-06
7	O	0.277866	0.597804	5e-06
8	C	0.294938	0.65898	6e-06
9	C	0.26082	0.652018	5e-06
10	N	0.232657	0.615235	0
11	C	0.325277	0.696189	4e-06
12	O	0.318169	0.721135	7e-06
13	C	0.362948	0.704519	0.999999
14	C	0.389692	0.738464	0.999998
15	N	0.384276	0.768597	0
16	H	0.324457	0.582228	1e-06
17	H	0.253598	0.67268	8e-06
18	H	0.416776	0.743311	0.999997
19	C	0.6301	0.3257	0.999995
20	O	0.59804	0.320087	0.999991
21	C	0.659044	0.363209	0.999998
22	C	0.653384	0.390857	0
23	N	0.617497	0.384392	0
24	C	0.69612	0.369867	3e-06
25	O	0.722134	0.402196	5e-06
26	C	0.705062	0.34102	6e-06
27	C	0.73918	0.347982	5e-06
28	N	0.767343	0.384765	0
29	C	0.674723	0.303811	4e-06
30	O	0.681831	0.278865	7e-06
31	C	0.637052	0.295481	0.999999
32	C	0.610308	0.261536	0.999998
33	N	0.615724	0.231403	0
34	H	0.675543	0.417772	1e-06
35	H	0.746402	0.32732	8e-06
36	H	0.583224	0.256689	0.999997
37	C	0.404436	0.594028	0
38	C	0.3693	0.580745	0.060266
39	C	0.362576	0.560344	0.232082
40	C	0.392954	0.559289	0.296748
41	C	0.395166	0.540779	0.464591
42	C	0.367791	0.508721	0.538606
43	C	0.378643	0.497605	0.706475
44	C	0.413987	0.521677	0.757355
45	C	0.434975	0.519977	0.919617
46	C	0.455718	0.502162	0.908416
47	C	0.458173	0.485326	0.740901
48	C	0.478984	0.468454	0.735895
49	C	0.498079	0.467671	0.898368
50	C	0.519827	0.450861	0.899421
51	C	0.523677	0.432547	0.731296
52	C	0.50127	0.397677	0.670068
53	C	0.514511	0.389648	0.500301
54	C	0.546442	0.418654	0.434699
55	C	0.567289	0.42026	0.267795
56	C	0.590114	0.450335	0.159763
57	C	0.606413	0.442005	0.003764
58	C	0.595564	0.405972	0
59	S	0.566387	0.382317	0.177586
60	S	0.560084	0.455239	0.582837
61	C	0.53817	0.451096	0.065161
62	C	0.534415	0.467878	0.223825
63	N	0.513992	0.483969	0.227195
64	C	0.495817	0.484393	0.068499
65	C	0.474715	0.501566	0.073501
66	N	0.47267	0.517535	0.237067
67	C	0.452823	0.534227	0.243246
68	C	0.43364	0.536162	0.089972
69	S	0.433493	0.557481	0.603828
70	S	0.429189	0.582792	0.145129
71	H	0.349317	0.585132	0.986801
72	H	0.336629	0.547416	0.305427
73	H	0.341141	0.49345	0.474268
74	H	0.361366	0.473153	0.785651
75	H	0.444038	0.485296	0.611024
76	H	0.480221	0.456088	0.6022
77	H	0.476626	0.378728	0.743496
78	H	0.500906	0.363602	0.429657
79	H	0.594843	0.477266	0.189462
80	H	0.624969	0.461596	0.901806
81	H	0.554985	0.438518	0.070487
82	H	0.548063	0.469001	0.357094
83	H	0.452907	0.546336	0.379835
84	H	0.418071	0.549973	0.102943
85	C	0.405807	0.811757	0
86	C	0.419359	0.790176	0.060266
87	C	0.439882	0.803794	0.232082
88	C	0.440755	0.834916	0.296748
89	C	0.459325	0.855503	0.464591
90	C	0.491678	0.860263	0.538606
91	C	0.502772	0.882054	0.706475
92	C	0.478387	0.89312	0.757355
93	C	0.479965	0.915587	0.919617
94	C	0.497723	0.953827	0.908416
95	C	0.514611	0.97299	0.740901
96	C	0.531422	0.010361	0.735895
97	C	0.53209	0.030042	0.898368
98	C	0.548834	0.06828	0.899421
99	C	0.567197	0.090293	0.731296
100	C	0.602343	0.102767	0.670068
101	C	0.610323	0.123854	0.500301
102	C	0.581005	0.126636	0.434699
103	C	0.579265	0.145679	0.267795
104	C	0.548931	0.138384	0.159763
105	C	0.557193	0.162798	0.003764
106	C	0.593437	0.187871	0
107	S	0.617364	0.182496	0.177586
108	S	0.544191	0.103782	0.582837
109	C	0.548486	0.086205	0.065161
110	C	0.53166	0.065809	0.223825
111	N	0.51563	0.029598	0.227195
112	C	0.515316	0.011184	0.068499
113	C	0.498205	0.973226	0.073501
114	N	0.482185	0.955331	0.237067
115	C	0.465549	0.919094	0.243246
116	C	0.463723	0.898179	0.089972
117	S	0.442321	0.876846	0.603828
118	S	0.416936	0.847429	0.145129
119	H	0.415077	0.766032	0.986801
120	H	0.453021	0.790957	0.305427
121	H	0.507173	0.849058	0.474268
122	H	0.527427	0.889252	0.785651
123	H	0.514727	0.959027	0.611024
124	H	0.543829	0.023875	0.6022
125	H	0.621519	0.097202	0.743496
126	H	0.636555	0.136272	0.429657
127	H	0.521863	0.116299	0.189462
128	H	0.537411	0.161698	0.901806
129	H	0.56101	0.115351	0.070487
130	H	0.530449	0.078204	0.357094
131	H	0.453391	0.907141	0.379835
132	H	0.449953	0.86904	0.102943
133	C	0.189193	0.593655	0
134	C	0.210777	0.628521	0.060266
135	C	0.196978	0.635302	0.232082
136	C	0.165727	0.605236	0.296748
137	C	0.144945	0.603159	0.464591
138	C	0.139967	0.630456	0.538606
139	C	0.118022	0.619782	0.706475
140	C	0.107061	0.584644	0.757355
141	C	0.084496	0.563877	0.919617
142	C	0.045995	0.543452	0.908416
143	C	0.026653	0.541125	0.740901
144	C	0.98903	0.520626	0.735895
145	C	0.969266	0.501727	0.898368
146	C	0.930774	0.4803	0.899421
147	C	0.908561	0.476602	0.731296
148	C	0.895822	0.498998	0.670068
149	C	0.874602	0.485939	0.500301
150	C	0.871989	0.45415	0.434699
151	C	0.852881	0.433502	0.267795
152	C	0.860391	0.410722	0.159763
153	C	0.83583	0.394638	0.003764
154	C	0.810435	0.405599	0
155	S	0.815685	0.434629	0.177586
156	S	0.89516	0.44042	0.582837
157	C	0.91278	0.46214	0.065161
158	C	0.93336	0.465754	0.223825
159	N	0.969814	0.485874	0.227195
160	C	0.988302	0.503864	0.068499
161	C	0.026516	0.524649	0.073501
162	N	0.04458	0.526575	0.237067
163	C	0.081064	0.546121	0.243246
164	C	0.102072	0.565099	0.089972
165	S	0.123622	0.565114	0.603828
166	S	0.153311	0.56922	0.145129
167	H	0.235042	0.648276	0.986801
168	H	0.209786	0.661068	0.305427
169	H	0.151122	0.656933	0.474268
170	H	0.110643	0.637036	0.785651
171	H	0.04067	0.555118	0.611024
172	H	0.975386	0.519477	0.6022
173	H	0.901291	0.523511	0.743496
174	H	0.861974	0.499567	0.429657
175	H	0.88273	0.405875	0.189462
176	H	0.837056	0.376147	0.901806
177	H	0.883441	0.445571	0.070487
178	H	0.920923	0.452236	0.357094
179	H	0.093139	0.545964	0.379835
180	H	0.131412	0.580428	0.102943
