data_C84H36N12O6S15_2023-05-15_16:30:41
#******************************************
#
# CIF file created by Zeo++
# Zeo++ is an open source package to
# analyze microporous materials
#
#*******************************************

_cell_length_a		49.2674   
_cell_length_b		49.5658   
_cell_length_c		7   
_cell_angle_alpha		90   
_cell_angle_beta		90   
_cell_angle_gamma		119.737   

_symmetry_space_group_name_H-M		'P1'
_symmetry_Int_Tables_number		1
_symmetry_cell_setting		Monoclinic

loop_
_symmetry_equiv_pos_as_xyz
'+x,+y,+z'

loop_
_atom_site_label
_atom_site_type_symbol
_atom_site_fract_x
_atom_site_fract_y
_atom_site_fract_z
1	C	0.364791	0.673241	0.999995
2	O	0.392372	0.678076	0.999991
3	C	0.339868	0.640933	0.999998
4	C	0.344716	0.617119	0
5	N	0.375589	0.622688	0
6	C	0.307972	0.635198	3e-06
7	O	0.285572	0.607352	5e-06
8	C	0.300302	0.660045	6e-06
9	C	0.270951	0.654049	5e-06
10	N	0.246699	0.622366	0
11	C	0.326426	0.692096	4e-06
12	O	0.32033	0.713583	7e-06
13	C	0.358835	0.69927	0.999999
14	C	0.381864	0.728509	0.999998
15	N	0.377227	0.754464	0
16	H	0.325636	0.593935	1e-06
17	H	0.264754	0.671847	8e-06
18	H	0.405163	0.732685	0.999997
19	C	0.635209	0.326759	0.999995
20	O	0.607628	0.321924	0.999991
21	C	0.660132	0.359067	0.999998
22	C	0.655284	0.382881	0
23	N	0.624411	0.377312	0
24	C	0.692028	0.364802	3e-06
25	O	0.714428	0.392648	5e-06
26	C	0.699698	0.339955	6e-06
27	C	0.729049	0.345951	5e-06
28	N	0.753301	0.377634	0
29	C	0.673574	0.307904	4e-06
30	O	0.67967	0.286417	7e-06
31	C	0.641165	0.30073	0.999999
32	C	0.618136	0.271491	0.999998
33	N	0.622773	0.245536	0
34	H	0.674364	0.406065	1e-06
35	H	0.735246	0.328153	8e-06
36	H	0.594837	0.267315	0.999997
37	C	0.605562	0.3959	0
38	C	0.595428	0.405898	0.84789
39	C	0.579416	0.421687	0.910715
40	C	0.577923	0.423154	0.108204
41	C	0.563588	0.437286	0.221072
42	C	0.562104	0.438736	0.417397
43	C	0.546082	0.454534	0.479587
44	C	0.535274	0.465205	0.331436
45	C	0.517823	0.482416	0.33448
46	C	0.508345	0.49176	0.168408
47	C	0.491645	0.50823	0.168408
48	C	0.48217	0.517577	0.33448
49	C	0.464718	0.534787	0.331435
50	C	0.453902	0.545451	0.479586
51	C	0.437882	0.56125	0.417396
52	C	0.436407	0.562709	0.221071
53	C	0.422075	0.576844	0.108204
54	C	0.420586	0.578315	0.910715
55	C	0.404574	0.594105	0.84789
56	C	0.394438	0.6041	0
57	S	0.403702	0.594962	0.213638
58	S	0.454676	0.544695	0.117038
59	C	0.490946	0.508924	0.508992
60	N	0.485087	0.514705	0.687676
61	S	0.5	0.5	0.838124
62	N	0.514911	0.485293	0.687676
63	C	0.50905	0.491071	0.508992
64	S	0.545327	0.455308	0.117039
65	S	0.596295	0.405034	0.213638
66	H	0.599089	0.402291	0.699689
67	H	0.569499	0.431469	0.813293
68	H	0.571972	0.428995	0.515477
69	H	0.542961	0.4576	0.629511
70	H	0.513885	0.486294	0.027818
71	H	0.486102	0.513694	0.027817
72	H	0.457016	0.542376	0.62951
73	H	0.428008	0.570985	0.515477
74	H	0.430504	0.568534	0.813294
75	H	0.400916	0.597714	0.699689
76	C	0.603571	0.208039	0
77	C	0.593593	0.188048	0.84789
78	C	0.577835	0.156468	0.910715
79	C	0.576371	0.153528	0.108204
80	C	0.562266	0.125261	0.221072
81	C	0.560819	0.122347	0.417397
82	C	0.545052	0.090749	0.479587
83	C	0.534402	0.06942	0.331436
84	C	0.517225	0.035	0.33448
85	C	0.507898	0.016309	0.168408
86	C	0.491461	0.983371	0.168408
87	C	0.482132	0.964679	0.33448
88	C	0.464956	0.930259	0.331435
89	C	0.454313	0.90893	0.479586
90	C	0.438545	0.877333	0.417396
91	C	0.437089	0.874419	0.221071
92	C	0.422981	0.846151	0.108204
93	C	0.421513	0.843211	0.910715
94	C	0.405754	0.811631	0.84789
95	C	0.395779	0.79164	0
96	S	0.404898	0.809913	0.213638
97	S	0.455067	0.910448	0.117038
98	C	0.490768	0.981987	0.508992
99	N	0.484999	0.970428	0.687676
100	S	0.499675	0.99984	0.838124
101	N	0.514353	0.029251	0.687676
102	C	0.508586	0.017693	0.508992
103	S	0.54428	0.089231	0.117039
104	S	0.594455	0.189766	0.213638
105	H	0.597193	0.195265	0.699689
106	H	0.568072	0.136907	0.813293
107	H	0.570541	0.141819	0.515477
108	H	0.541992	0.084605	0.629511
109	H	0.513354	0.027238	0.027818
110	H	0.486008	0.972441	0.027817
111	H	0.457381	0.915075	0.62951
112	H	0.428828	0.85786	0.515477
113	H	0.431275	0.862773	0.813294
114	H	0.402151	0.804414	0.699689
115	C	0.790381	0.395579	0
116	C	0.810493	0.405572	0.84789
117	C	0.842264	0.421363	0.910715
118	C	0.845221	0.422836	0.108204
119	C	0.87366	0.436972	0.221072
120	C	0.876592	0.438436	0.417397
121	C	0.90838	0.454235	0.479587
122	C	0.929839	0.464893	0.331436
123	C	0.964467	0.482103	0.33448
124	C	0.983271	0.491449	0.168408
125	C	0.016408	0.507918	0.168408
126	C	0.035213	0.517262	0.33448
127	C	0.069841	0.534472	0.331435
128	C	0.091299	0.545138	0.479586
129	C	0.123088	0.560936	0.417396
130	C	0.126019	0.562391	0.221071
131	C	0.154458	0.576524	0.108204
132	C	0.157415	0.577992	0.910715
133	C	0.189187	0.593782	0.84789
134	C	0.209298	0.603778	0
135	S	0.190915	0.594643	0.213638
136	S	0.089772	0.544375	0.117038
137	C	0.017801	0.508607	0.508992
138	N	0.029429	0.514385	0.687676
139	S	0.99984	0.499679	0.838124
140	N	0.97025	0.484974	0.687676
141	C	0.981879	0.490755	0.508992
142	S	0.909908	0.45498	0.117039
143	S	0.808765	0.404718	0.213638
144	H	0.803232	0.401962	0.699689
145	H	0.861944	0.431143	0.813293
146	H	0.857001	0.428704	0.515477
147	H	0.914562	0.457313	0.629511
148	H	0.972275	0.485986	0.027818
149	H	0.027404	0.513384	0.027817
150	H	0.085117	0.542067	0.62951
151	H	0.142678	0.570673	0.515477
152	H	0.137736	0.568212	0.813294
153	H	0.196447	0.59739	0.699689
