data_C78H36N12O6S6_2023-05-13_00:44:21
#******************************************
#
# CIF file created by Zeo++
# Zeo++ is an open source package to
# analyze microporous materials
#
#*******************************************

_cell_length_a		43.9667   
_cell_length_b		44.2652   
_cell_length_c		7   
_cell_angle_alpha		90   
_cell_angle_beta		90   
_cell_angle_gamma		119.705   

_symmetry_space_group_name_H-M		'P1'
_symmetry_Int_Tables_number		1
_symmetry_cell_setting		Monoclinic

loop_
_symmetry_equiv_pos_as_xyz
'+x,+y,+z'

loop_
_atom_site_label
_atom_site_type_symbol
_atom_site_fract_x
_atom_site_fract_y
_atom_site_fract_z
1	C	0.368579	0.674026	0.999995
2	O	0.399481	0.679438	0.999991
3	C	0.340674	0.63786	0.999998
4	C	0.346123	0.611203	0
5	N	0.380715	0.617437	0
6	C	0.304937	0.631441	3e-06
7	O	0.279856	0.60027	5e-06
8	C	0.296325	0.659255	6e-06
9	C	0.263439	0.652543	5e-06
10	N	0.236286	0.617077	0
11	C	0.325575	0.695132	4e-06
12	O	0.318729	0.719184	7e-06
13	C	0.361886	0.703163	0.999999
14	C	0.38767	0.735893	0.999998
15	N	0.382456	0.764947	0
16	H	0.324759	0.585252	1e-06
17	H	0.256482	0.672465	8e-06
18	H	0.413776	0.740567	0.999997
19	C	0.631421	0.325974	0.999995
20	O	0.600519	0.320562	0.999991
21	C	0.659326	0.36214	0.999998
22	C	0.653877	0.388797	0
23	N	0.619285	0.382563	0
24	C	0.695063	0.368559	3e-06
25	O	0.720144	0.39973	5e-06
26	C	0.703675	0.340745	6e-06
27	C	0.736561	0.347457	5e-06
28	N	0.763714	0.382923	0
29	C	0.674425	0.304868	4e-06
30	O	0.681271	0.280816	7e-06
31	C	0.638114	0.296837	0.999999
32	C	0.61233	0.264107	0.999998
33	N	0.617544	0.235053	0
34	H	0.675241	0.414748	1e-06
35	H	0.743518	0.327535	8e-06
36	H	0.586224	0.259433	0.999997
37	C	0.401849	0.596629	0
38	C	0.405696	0.592841	0.809068
39	C	0.424348	0.574477	0.77818
40	C	0.434131	0.564847	0.94631
41	C	0.45354	0.545739	0.971629
42	C	0.464866	0.534588	0.815631
43	N	0.482763	0.516969	0.825253
44	C	0.490835	0.509022	0.997853
45	C	0.48046	0.519237	0.165551
46	C	0.461917	0.537493	0.149601
47	C	0.48845	0.511371	0.345656
48	C	0.506724	0.49338	0.36119
49	C	0.517214	0.483053	0.196756
50	C	0.535757	0.464796	0.212123
51	C	0.546608	0.454113	0.050481
52	C	0.566094	0.43493	0.067699
53	C	0.576493	0.424691	0.231416
54	C	0.595015	0.406456	0.192457
55	C	0.598151	0.403371	0
56	S	0.5795	0.421733	0.867873
57	C	0.537687	0.462895	0.877133
58	N	0.519852	0.480455	0.856798
59	C	0.509387	0.490757	0.013626
60	S	0.419995	0.578766	0.140142
61	H	0.395882	0.602502	0.696492
62	H	0.43013	0.568784	0.63663
63	H	0.459984	0.539395	0.669742
64	H	0.454144	0.545145	0.280234
65	H	0.480502	0.519196	0.475204
66	H	0.512687	0.48751	0.502621
67	H	0.541605	0.45904	0.353928
68	H	0.571235	0.429866	0.375253
69	H	0.605245	0.396383	0.300593
70	H	0.544559	0.456129	0.740872
71	C	0.403218	0.806562	0
72	C	0.406998	0.814137	0.809068
73	C	0.425321	0.850864	0.77818
74	C	0.43493	0.870125	0.94631
75	C	0.453996	0.908341	0.971629
76	C	0.465123	0.930644	0.815631
77	N	0.482704	0.965882	0.825253
78	C	0.490633	0.981775	0.997853
79	C	0.480441	0.961347	0.165551
80	C	0.462225	0.924835	0.149601
81	C	0.48829	0.977078	0.345656
82	C	0.506241	0.01306	0.36119
83	C	0.516546	0.033715	0.196756
84	C	0.534762	0.070227	0.212123
85	C	0.545422	0.091593	0.050481
86	C	0.564563	0.12996	0.067699
87	C	0.57478	0.150437	0.231416
88	C	0.592975	0.186907	0.192457
89	C	0.596053	0.193079	0
90	S	0.577731	0.156355	0.867873
91	C	0.536659	0.074028	0.877133
92	N	0.519138	0.03891	0.856798
93	C	0.508858	0.018306	0.013626
94	S	0.421042	0.842289	0.140142
95	H	0.397357	0.794813	0.696492
96	H	0.431002	0.862249	0.63663
97	H	0.460327	0.92103	0.669742
98	H	0.454589	0.909529	0.280234
99	H	0.480482	0.961429	0.475204
100	H	0.512098	0.024801	0.502621
101	H	0.540506	0.081741	0.353928
102	H	0.569616	0.140085	0.375253
103	H	0.603025	0.207051	0.300593
104	H	0.54341	0.08756	0.740872
105	C	0.194389	0.59627	0
106	C	0.186763	0.592483	0.809068
107	C	0.149787	0.57412	0.77818
108	C	0.130395	0.564489	0.94631
109	C	0.09192	0.54538	0.971629
110	C	0.069466	0.534229	0.815631
111	N	0.033989	0.51661	0.825253
112	C	0.017988	0.508664	0.997853
113	C	0.038555	0.518878	0.165551
114	C	0.075315	0.537134	0.149601
115	C	0.022717	0.511012	0.345656
116	C	0.986491	0.493021	0.36119
117	C	0.965697	0.482694	0.196756
118	C	0.928937	0.464437	0.212123
119	C	0.907426	0.453755	0.050481
120	C	0.868799	0.434571	0.067699
121	C	0.848183	0.424333	0.231416
122	C	0.811466	0.406098	0.192457
123	C	0.805252	0.403011	0
124	S	0.842225	0.421373	0.867873
125	C	0.92511	0.462537	0.877133
126	N	0.960466	0.480096	0.856798
127	C	0.98121	0.490398	0.013626
128	S	0.158419	0.578405	0.140142
129	H	0.206217	0.602145	0.696492
130	H	0.138325	0.568428	0.63663
131	H	0.079145	0.539036	0.669742
132	H	0.090724	0.544786	0.280234
133	H	0.038472	0.518836	0.475204
134	H	0.974671	0.48715	0.502621
135	H	0.917345	0.45868	0.353928
136	H	0.858606	0.42951	0.375253
137	H	0.791186	0.396026	0.300593
138	H	0.911487	0.455772	0.740872
