data_C102H48N6O6S21_2023-05-15_10:18:00
#******************************************
#
# CIF file created by Zeo++
# Zeo++ is an open source package to
# analyze microporous materials
#
#*******************************************

_cell_length_a		62.2608   
_cell_length_b		62.5592   
_cell_length_c		7   
_cell_angle_alpha		90   
_cell_angle_beta		90   
_cell_angle_gamma		119.792   

_symmetry_space_group_name_H-M		'P1'
_symmetry_Int_Tables_number		1
_symmetry_cell_setting		Monoclinic

loop_
_symmetry_equiv_pos_as_xyz
'+x,+y,+z'

loop_
_atom_site_label
_atom_site_type_symbol
_atom_site_fract_x
_atom_site_fract_y
_atom_site_fract_z
1	C	0.358232	0.671879	0.999995
2	O	0.380061	0.675711	0.999991
3	C	0.338482	0.646267	0.999998
4	C	0.342297	0.627388	0
5	N	0.366732	0.631803	0
6	C	0.313237	0.641721	3e-06
7	O	0.295488	0.619646	5e-06
8	C	0.30719	0.661418	6e-06
9	C	0.283959	0.656664	5e-06
10	N	0.26474	0.631548	0
11	C	0.32789	0.686825	4e-06
12	O	0.323085	0.703859	7e-06
13	C	0.353541	0.692513	0.999999
14	C	0.37179	0.715692	0.999998
15	N	0.368143	0.736267	0
16	H	0.327179	0.60901	1e-06
17	H	0.279071	0.670773	8e-06
18	H	0.39023	0.719001	0.999997
19	C	0.641768	0.328121	0.999995
20	O	0.619939	0.324289	0.999991
21	C	0.661518	0.353733	0.999998
22	C	0.657703	0.372612	0
23	N	0.633268	0.368197	0
24	C	0.686763	0.358279	3e-06
25	O	0.704512	0.380354	5e-06
26	C	0.69281	0.338582	6e-06
27	C	0.716041	0.343336	5e-06
28	N	0.73526	0.368452	0
29	C	0.67211	0.313175	4e-06
30	O	0.676915	0.296141	7e-06
31	C	0.646459	0.307487	0.999999
32	C	0.62821	0.284308	0.999998
33	N	0.631857	0.263733	0
34	H	0.672821	0.39099	1e-06
35	H	0.720929	0.329227	8e-06
36	H	0.60977	0.280999	0.999997
37	C	0.381631	0.617068	0
38	C	0.391586	0.607222	0.122955
39	C	0.40314	0.595795	0.021536
40	C	0.416451	0.58263	0.116619
41	C	0.418504	0.5806	0.31064
42	C	0.431473	0.567774	0.355845
43	C	0.439049	0.56028	0.195657
44	C	0.452569	0.546909	0.192944
45	C	0.460415	0.539148	0.350034
46	C	0.473303	0.526402	0.299638
47	C	0.475028	0.524697	0.104859
48	C	0.488169	0.5117	0.004313
49	C	0.48966	0.510226	0.809125
50	S	0.504973	0.49508	0.743904
51	C	0.510019	0.490089	0.977163
52	C	0.523092	0.47716	0.030447
53	C	0.52788	0.472421	0.213857
54	C	0.54117	0.459277	0.218278
55	C	0.546452	0.454057	0.038155
56	C	0.559561	0.441092	0.988051
57	C	0.564848	0.435865	0.807571
58	C	0.578145	0.422714	0.811427
59	C	0.58273	0.418179	0.994976
60	C	0.597026	0.40404	0.046382
61	C	0.601414	0.399699	0.231831
62	S	0.617373	0.383916	0.241357
63	C	0.618369	0.382932	0
64	C	0.606986	0.394191	0.910872
65	S	0.571034	0.429744	0.159584
66	S	0.535009	0.465377	0.866965
67	C	0.499905	0.500092	0.100412
68	S	0.461185	0.538388	0.985859
69	S	0.430083	0.569148	0.992085
70	C	0.401316	0.597599	0.826235
71	S	0.385821	0.612924	0.766866
72	H	0.390629	0.608169	0.276821
73	H	0.411206	0.587818	0.417281
74	H	0.434962	0.564323	0.500982
75	H	0.457173	0.542355	0.496513
76	H	0.480776	0.519011	0.403342
77	H	0.482563	0.517246	0.69958
78	H	0.522209	0.478027	0.341739
79	H	0.546494	0.454009	0.349732
80	H	0.559504	0.44115	0.676259
81	H	0.583866	0.417057	0.684121
82	H	0.596155	0.404899	0.363542
83	H	0.605871	0.395294	0.757242
84	H	0.500889	0.499119	0.254194
85	H	0.408221	0.590769	0.713812
86	C	0.382856	0.765738	0
87	C	0.392686	0.785429	0.122955
88	C	0.404096	0.808282	0.021536
89	C	0.41724	0.834612	0.116619
90	C	0.419267	0.838673	0.31064
91	C	0.432074	0.864326	0.355845
92	C	0.439555	0.879312	0.195657
93	C	0.452906	0.906055	0.192944
94	C	0.460655	0.921575	0.350034
95	C	0.473381	0.947067	0.299638
96	C	0.475084	0.950479	0.104859
97	C	0.488061	0.976472	0.004313
98	C	0.489533	0.979421	0.809125
99	S	0.504655	0.009711	0.743904
100	C	0.509638	0.019693	0.977163
101	C	0.522548	0.045551	0.030447
102	C	0.52728	0.055026	0.213857
103	C	0.540403	0.081314	0.218278
104	C	0.545615	0.091757	0.038155
105	C	0.55856	0.117687	0.988051
106	C	0.563779	0.128143	0.807571
107	C	0.576909	0.154445	0.811427
108	C	0.581438	0.163514	0.994976
109	C	0.595555	0.191793	0.046382
110	C	0.599889	0.200473	0.231831
111	S	0.615648	0.23204	0.241357
112	C	0.61663	0.234008	0
113	C	0.605389	0.211492	0.910872
114	S	0.56989	0.140382	0.159584
115	S	0.534313	0.06912	0.866965
116	C	0.499651	0.999687	0.100412
117	S	0.461414	0.923096	0.985859
118	S	0.430702	0.861577	0.992085
119	C	0.402295	0.804675	0.826235
120	S	0.386994	0.774025	0.766866
121	H	0.391741	0.783535	0.276821
122	H	0.412061	0.824237	0.417281
123	H	0.435519	0.871227	0.500982
124	H	0.457454	0.915162	0.496513
125	H	0.480761	0.961849	0.403342
126	H	0.482524	0.965382	0.69958
127	H	0.521682	0.04381	0.341739
128	H	0.545662	0.091846	0.349732
129	H	0.558502	0.117572	0.676259
130	H	0.582557	0.165759	0.684121
131	H	0.594697	0.190072	0.363542
132	H	0.604287	0.209286	0.757242
133	H	0.500622	0.001633	0.254194
134	H	0.409114	0.818334	0.713812
135	C	0.235129	0.616813	0
136	C	0.215343	0.606967	0.122955
137	C	0.19238	0.595541	0.021536
138	C	0.165925	0.582376	0.116619
139	C	0.161845	0.580346	0.31064
140	C	0.136069	0.567519	0.355845
141	C	0.121011	0.560026	0.195657
142	C	0.09414	0.546655	0.192944
143	C	0.078546	0.538895	0.350034
144	C	0.052931	0.526149	0.299638
145	C	0.049504	0.524443	0.104859
146	C	0.023386	0.511446	0.004313
147	C	0.020423	0.509972	0.809125
148	S	0.989988	0.494827	0.743904
149	C	0.979958	0.489836	0.977163
150	C	0.953976	0.476908	0.030447
151	C	0.944456	0.472172	0.213857
152	C	0.918042	0.459028	0.218278
153	C	0.907549	0.453804	0.038155
154	C	0.881495	0.440839	0.988051
155	C	0.870989	0.435611	0.807571
156	C	0.844561	0.422459	0.811427
157	C	0.835448	0.417925	0.994976
158	C	0.807034	0.403786	0.046382
159	C	0.798313	0.399446	0.231831
160	S	0.766595	0.383663	0.241357
161	C	0.764617	0.382678	0
162	C	0.787241	0.393936	0.910872
163	S	0.858692	0.429492	0.159584
164	S	0.930295	0.465122	0.866965
165	C	6e-05	0.499839	0.100412
166	S	0.077017	0.538134	0.985859
167	S	0.138831	0.568893	0.992085
168	C	0.196005	0.597345	0.826235
169	S	0.226801	0.612669	0.766866
170	H	0.217247	0.607914	0.276821
171	H	0.176349	0.587563	0.417281
172	H	0.129135	0.564068	0.500982
173	H	0.084989	0.542101	0.496513
174	H	0.038079	0.518758	0.403342
175	H	0.034529	0.516991	0.69958
176	H	0.955725	0.477781	0.341739
177	H	0.90746	0.453763	0.349732
178	H	0.88161	0.440896	0.676259
179	H	0.833193	0.416802	0.684121
180	H	0.808764	0.404647	0.363542
181	H	0.789458	0.395038	0.757242
182	H	0.998105	0.498866	0.254194
183	H	0.18228	0.590515	0.713812
