data_C108H48N12O6S21_2023-05-15_17:42:07
#******************************************
#
# CIF file created by Zeo++
# Zeo++ is an open source package to
# analyze microporous materials
#
#*******************************************

_cell_length_a		59.9215   
_cell_length_b		60.2199   
_cell_length_c		7   
_cell_angle_alpha		90   
_cell_angle_beta		90   
_cell_angle_gamma		119.784   

_symmetry_space_group_name_H-M		'P1'
_symmetry_Int_Tables_number		1
_symmetry_cell_setting		Monoclinic

loop_
_symmetry_equiv_pos_as_xyz
'+x,+y,+z'

loop_
_atom_site_label
_atom_site_type_symbol
_atom_site_fract_x
_atom_site_fract_y
_atom_site_fract_z
1	C	0.359203	0.672081	0.999995
2	O	0.381884	0.676062	0.999991
3	C	0.338686	0.645476	0.999998
4	C	0.342654	0.625866	0
5	N	0.368042	0.630452	0
6	C	0.312457	0.640754	3e-06
7	O	0.294018	0.617823	5e-06
8	C	0.30617	0.661214	6e-06
9	C	0.282033	0.656277	5e-06
10	N	0.262068	0.630187	0
11	C	0.327674	0.687607	4e-06
12	O	0.322679	0.7053	7e-06
13	C	0.354326	0.693515	0.999999
14	C	0.373283	0.717592	0.999998
15	N	0.369491	0.738965	0
16	H	0.326948	0.606775	1e-06
17	H	0.276952	0.670932	8e-06
18	H	0.392443	0.72103	0.999997
19	C	0.640797	0.327919	0.999995
20	O	0.618116	0.323938	0.999991
21	C	0.661314	0.354524	0.999998
22	C	0.657346	0.374134	0
23	N	0.631958	0.369548	0
24	C	0.687543	0.359246	3e-06
25	O	0.705982	0.382177	5e-06
26	C	0.69383	0.338786	6e-06
27	C	0.717967	0.343723	5e-06
28	N	0.737932	0.369813	0
29	C	0.672326	0.312393	4e-06
30	O	0.677321	0.2947	7e-06
31	C	0.645674	0.306485	0.999999
32	C	0.626717	0.282408	0.999998
33	N	0.630509	0.261035	0
34	H	0.673052	0.393225	1e-06
35	H	0.723048	0.329068	8e-06
36	H	0.607557	0.27897	0.999997
37	C	0.383525	0.615145	0
38	C	0.378774	0.602937	0.172868
39	S	0.395791	0.587229	0.196257
40	C	0.409672	0.596805	0.973587
41	C	0.427491	0.589472	0.895055
42	C	0.434762	0.591045	0.705652
43	C	0.45271	0.582356	0.674557
44	C	0.458961	0.574211	0.840447
45	C	0.476623	0.564434	0.857684
46	C	0.49577	0.56809	0.729578
47	C	0.509736	0.555706	0.786486
48	C	0.501071	0.542981	0.957829
49	C	0.509993	0.527878	0.060717
50	C	0.50602	0.504227	0.991484
51	C	0.514662	0.489342	0.088941
52	C	0.528178	0.496723	0.264195
53	C	0.536999	0.481197	0.364804
54	C	0.535554	0.475388	0.556746
55	C	0.54659	0.459764	0.60062
56	C	0.55639	0.453837	0.441817
57	C	0.568982	0.438544	0.438431
58	C	0.575732	0.429123	0.59487
59	C	0.587911	0.41475	0.543626
60	C	0.590353	0.413258	0.348335
61	C	0.601702	0.400392	0.245329
62	C	0.604362	0.399156	0.049354
63	C	0.616475	0.384855	0
64	C	0.622926	0.37535	0.155231
65	S	0.614227	0.383832	0.363295
66	S	0.577585	0.429449	0.231448
67	S	0.551828	0.467552	0.241229
68	C	0.532885	0.520637	0.341278
69	N	0.545321	0.53177	0.504482
70	S	0.545687	0.559345	0.523359
71	N	0.530157	0.558802	0.32652
72	C	0.523666	0.536687	0.236221
73	S	0.475886	0.545675	0.04534
74	S	0.442976	0.577603	0.031589
75	C	0.401104	0.611798	0.884981
76	H	0.366272	0.602369	0.286509
77	H	0.427504	0.597946	0.592094
78	H	0.460428	0.581997	0.535241
79	H	0.499876	0.579327	0.60021
80	H	0.525497	0.556353	0.705976
81	H	0.495605	0.496825	0.857573
82	H	0.510338	0.471115	0.024654
83	H	0.527018	0.482084	0.662344
84	H	0.547209	0.45333	0.743966
85	H	0.572307	0.432343	0.741493
86	H	0.594542	0.406031	0.647899
87	H	0.597911	0.408147	0.945946
88	H	0.632261	0.363916	0.157775
89	H	0.407316	0.620075	0.7441
90	C	0.384773	0.769578	0
91	C	0.397035	0.777015	0.172868
92	S	0.412713	0.809551	0.196257
93	C	0.40305	0.813798	0.973587
94	C	0.410326	0.838792	0.895055
95	C	0.408717	0.844445	0.705652
96	C	0.417352	0.870917	0.674557
97	C	0.425493	0.885233	0.840447
98	C	0.43522	0.912503	0.857684
99	C	0.431471	0.927874	0.729578
100	C	0.443829	0.954071	0.786486
101	C	0.456627	0.958138	0.957829
102	C	0.471734	0.982034	0.060717
103	C	0.495468	0.001636	0.991484
104	C	0.510357	0.025037	0.088941
105	C	0.502896	0.031108	0.264195
106	C	0.518428	0.055325	0.364804
107	C	0.524258	0.059674	0.556746
108	C	0.539878	0.086187	0.60062
109	C	0.545779	0.101819	0.441817
110	C	0.561061	0.129548	0.438431
111	C	0.570478	0.145629	0.59487
112	C	0.584838	0.172032	0.543626
113	C	0.586324	0.175942	0.348335
114	C	0.599177	0.200021	0.245329
115	C	0.600405	0.203893	0.049354
116	C	0.614693	0.230158	0
117	C	0.624196	0.246027	0.155231
118	S	0.615729	0.228945	0.363295
119	S	0.570144	0.147145	0.231448
120	S	0.532046	0.083633	0.241229
121	C	0.478895	0.011972	0.341278
122	N	0.467677	0.013235	0.504482
123	S	0.440023	0.986143	0.523359
124	N	0.440634	0.971264	0.32652
125	C	0.46284	0.986838	0.236221
126	S	0.454035	0.93045	0.04534
127	S	0.42216	0.865984	0.031589
128	C	0.388053	0.790364	0.884981
129	H	0.397659	0.765168	0.286509
130	H	0.401828	0.830368	0.592094
131	H	0.417679	0.878938	0.535241
132	H	0.420184	0.920763	0.60021
133	H	0.443111	0.969076	0.705976
134	H	0.502936	0.998665	0.857573
135	H	0.528654	0.038892	0.024654
136	H	0.517581	0.044531	0.662344
137	H	0.546328	0.093208	0.743966
138	H	0.567265	0.139023	0.741493
139	H	0.593553	0.187297	0.647899
140	H	0.591417	0.188535	0.945946
141	H	0.635622	0.26668	0.157775
142	H	0.379725	0.78829	0.7441
143	C	0.231303	0.61488	0
144	C	0.223792	0.619651	0.172868
145	S	0.191097	0.602824	0.196257
146	C	0.186879	0.589	0.973587
147	C	0.161784	0.571339	0.895055
148	C	0.156122	0.564113	0.705652
149	C	0.129539	0.546331	0.674557
150	C	0.115147	0.540159	0.840447
151	C	0.087758	0.522666	0.857684
152	C	0.07236	0.503639	0.729578
153	C	0.046037	0.489827	0.786486
154	C	0.041903	0.498485	0.957829
155	C	0.017874	0.489692	0.060717
156	C	0.998113	0.49374	0.991484
157	C	0.974582	0.485224	0.088941
158	C	0.968527	0.471772	0.264195
159	C	0.944174	0.463082	0.364804
160	C	0.939788	0.464541	0.556746
161	C	0.913133	0.453652	0.60062
162	C	0.897431	0.443947	0.441817
163	C	0.869558	0.431512	0.438431
164	C	0.853391	0.424851	0.59487
165	C	0.826852	0.412821	0.543626
166	C	0.822924	0.410403	0.348335
167	C	0.798721	0.39919	0.245329
168	C	0.794833	0.396555	0.049354
169	C	0.768433	0.38459	0
170	C	0.752478	0.378226	0.155231
171	S	0.769645	0.386827	0.363295
172	S	0.851872	0.42301	0.231448
173	S	0.915727	0.448418	0.241229
174	C	0.98782	0.466994	0.341278
175	N	0.986603	0.454599	0.504482
176	S	0.013891	0.454115	0.523359
177	N	0.02881	0.469537	0.32652
178	C	0.013095	0.476078	0.236221
179	S	0.06968	0.523479	0.04534
180	S	0.134465	0.556016	0.031589
181	C	0.210444	0.597442	0.884981
182	H	0.235669	0.632066	0.286509
183	H	0.170269	0.571289	0.592094
184	H	0.121494	0.538669	0.535241
185	H	0.079541	0.499513	0.60021
186	H	0.030993	0.474175	0.705976
187	H	0.00106	0.504113	0.857573
188	H	0.960609	0.489597	0.024654
189	H	0.955002	0.472988	0.662344
190	H	0.906064	0.453065	0.743966
191	H	0.86003	0.428238	0.741493
192	H	0.811506	0.406275	0.647899
193	H	0.810274	0.402921	0.945946
194	H	0.731718	0.369008	0.157775
195	H	0.212561	0.591238	0.7441
