data_C96H48N12O6S12_2023-05-13_11:20:15
#******************************************
#
# CIF file created by Zeo++
# Zeo++ is an open source package to
# analyze microporous materials
#
#*******************************************

_cell_length_a		54.5542   
_cell_length_b		54.8527   
_cell_length_c		7   
_cell_angle_alpha		90   
_cell_angle_beta		90   
_cell_angle_gamma		119.762   

_symmetry_space_group_name_H-M		'P1'
_symmetry_Int_Tables_number		1
_symmetry_cell_setting		Monoclinic

loop_
_symmetry_equiv_pos_as_xyz
'+x,+y,+z'

loop_
_atom_site_label
_atom_site_type_symbol
_atom_site_fract_x
_atom_site_fract_y
_atom_site_fract_z
1	C	0.361746	0.672609	0.999995
2	O	0.386656	0.676979	0.999991
3	C	0.339223	0.643407	0.999998
4	C	0.34359	0.621883	0
5	N	0.371474	0.626916	0
6	C	0.310415	0.638224	3e-06
7	O	0.290173	0.613055	5e-06
8	C	0.3035	0.660682	6e-06
9	C	0.276991	0.655263	5e-06
10	N	0.255074	0.626626	0
11	C	0.327107	0.689651	4e-06
12	O	0.321612	0.709072	7e-06
13	C	0.356379	0.696135	0.999999
14	C	0.377189	0.722563	0.999998
15	N	0.373014	0.746022	0
16	H	0.326348	0.600929	1e-06
17	H	0.271403	0.671349	8e-06
18	H	0.398233	0.726337	0.999997
19	C	0.638254	0.327391	0.999995
20	O	0.613344	0.323021	0.999991
21	C	0.660777	0.356593	0.999998
22	C	0.65641	0.378117	0
23	N	0.628526	0.373084	0
24	C	0.689585	0.361776	3e-06
25	O	0.709827	0.386945	5e-06
26	C	0.6965	0.339318	6e-06
27	C	0.723009	0.344737	5e-06
28	N	0.744926	0.373374	0
29	C	0.672893	0.310349	4e-06
30	O	0.678388	0.290928	7e-06
31	C	0.643621	0.303865	0.999999
32	C	0.622811	0.277437	0.999998
33	N	0.626986	0.253978	0
34	H	0.673652	0.399071	1e-06
35	H	0.728597	0.328651	8e-06
36	H	0.601767	0.273663	0.999997
37	C	0.611513	0.389884	0
38	C	0.5987	0.402533	0.093915
39	C	0.587055	0.414037	0.962677
40	C	0.57084	0.430046	0.020075
41	C	0.565975	0.434844	0.205274
42	C	0.550801	0.449826	0.214548
43	C	0.544307	0.456244	0.036555
44	C	0.528918	0.47144	0.988357
45	C	0.523973	0.47632	0.800225
46	C	0.509486	0.490625	0.767176
47	N	0.499652	0.500338	0.906713
48	C	0.50408	0.495969	0.09143
49	C	0.492627	0.50728	0.239363
50	C	0.495171	0.504768	0.435734
51	C	0.483741	0.516056	0.562481
52	C	0.46993	0.529695	0.491909
53	C	0.467933	0.531666	0.295532
54	C	0.453955	0.545469	0.200266
55	C	0.451218	0.548173	0.005653
56	C	0.436422	0.562783	0.961268
57	C	0.428136	0.570964	0.123328
58	C	0.411367	0.587522	0.121926
59	C	0.403257	0.59553	0.286401
60	S	0.385375	0.613187	0.238214
61	C	0.388487	0.610116	0
62	C	0.40268	0.596101	0.954347
63	S	0.438252	0.560975	0.325564
64	N	0.479044	0.520694	0.172199
65	C	0.518625	0.481607	0.134241
66	S	0.557166	0.443555	0.860873
67	C	0.591688	0.409469	0.775441
68	S	0.609885	0.391499	0.759166
69	H	0.597745	0.403472	0.247951
70	H	0.572769	0.428131	0.330067
71	H	0.545086	0.455464	0.348754
72	H	0.531037	0.469342	0.67788
73	H	0.505261	0.494795	0.622733
74	H	0.505824	0.494248	0.494475
75	H	0.4856	0.514219	0.715709
76	H	0.461078	0.538436	0.59104
77	H	0.45964	0.539857	0.899627
78	H	0.432318	0.566836	0.816858
79	H	0.406797	0.592033	0.433331
80	H	0.406611	0.59222	0.80906
81	H	0.522032	0.478247	0.281822
82	H	0.585418	0.415663	0.645984
83	C	0.609628	0.220086	0
84	C	0.597001	0.194785	0.093915
85	C	0.585518	0.171783	0.962677
86	C	0.569537	0.139762	0.020075
87	C	0.564748	0.13016	0.205274
88	C	0.549792	0.100194	0.214548
89	C	0.543385	0.087363	0.036555
90	C	0.528216	0.056971	0.988357
91	C	0.523345	0.047208	0.800225
92	C	0.509065	0.018597	0.767176
93	N	0.499369	0.999173	0.906713
94	C	0.50373	0.007915	0.09143
95	C	0.492439	0.985294	0.239363
96	C	0.494947	0.990319	0.435734
97	C	0.483679	0.967744	0.562481
98	C	0.470064	0.940467	0.491909
99	C	0.468096	0.936524	0.295532
100	C	0.454318	0.908919	0.200266
101	C	0.451619	0.903512	0.005653
102	C	0.437034	0.874291	0.961268
103	C	0.428868	0.857928	0.123328
104	C	0.412338	0.82481	0.121926
105	C	0.404345	0.808795	0.286401
106	S	0.386719	0.773479	0.238214
107	C	0.389785	0.779624	0
108	C	0.403775	0.807653	0.954347
109	S	0.438839	0.877906	0.325564
110	N	0.479049	0.958468	0.172199
111	C	0.518067	0.03664	0.134241
112	S	0.556052	0.11275	0.860873
113	C	0.590078	0.180925	0.775441
114	S	0.608016	0.216864	0.759166
115	H	0.596064	0.192903	0.247951
116	H	0.571449	0.143582	0.330067
117	H	0.544164	0.088912	0.348754
118	H	0.53031	0.06116	0.67788
119	H	0.504902	0.010255	0.622733
120	H	0.505448	0.011359	0.494475
121	H	0.485512	0.971417	0.715709
122	H	0.461338	0.922984	0.59104
123	H	0.45992	0.920144	0.899627
124	H	0.432989	0.866186	0.816858
125	H	0.407835	0.815787	0.433331
126	H	0.407649	0.815416	0.80906
127	H	0.521421	0.043364	0.281822
128	H	0.583895	0.16854	0.645984
129	C	0.778421	0.389594	0
130	C	0.803861	0.402246	0.093915
131	C	0.826988	0.413745	0.962677
132	C	0.859184	0.429757	0.020075
133	C	0.868839	0.434561	0.205274
134	C	0.898968	0.449545	0.214548
135	C	0.911869	0.455957	0.036555
136	C	0.942427	0.471154	0.988357
137	C	0.952244	0.476037	0.800225
138	C	0.981011	0.490342	0.767176
139	N	0.000541	0.500053	0.906713
140	C	0.991752	0.495681	0.09143
141	C	0.014496	0.506991	0.239363
142	C	0.009443	0.504478	0.435734
143	C	0.032142	0.515765	0.562481
144	C	0.059567	0.529403	0.491909
145	C	0.063532	0.531375	0.295532
146	C	0.091288	0.545177	0.200266
147	C	0.096725	0.54788	0.005653
148	C	0.126105	0.562491	0.961268
149	C	0.142557	0.570673	0.123328
150	C	0.175856	0.587232	0.121926
151	C	0.191959	0.59524	0.286401
152	S	0.227467	0.612898	0.238214
153	C	0.221289	0.609825	0
154	C	0.193107	0.595811	0.954347
155	S	0.122471	0.560684	0.325564
156	N	0.041468	0.520403	0.172199
157	C	0.96287	0.481318	0.134241
158	S	0.886344	0.44326	0.860873
159	C	0.817796	0.409171	0.775441
160	S	0.781661	0.391201	0.759166
161	H	0.805752	0.403189	0.247951
162	H	0.855344	0.427852	0.330067
163	H	0.910312	0.455189	0.348754
164	H	0.938215	0.469062	0.67788
165	H	0.989399	0.494515	0.622733
166	H	0.988289	0.493958	0.494475
167	H	0.028449	0.513929	0.715709
168	H	0.077146	0.538144	0.59104
169	H	0.080001	0.539564	0.899627
170	H	0.134254	0.566543	0.816858
171	H	0.184929	0.591745	0.433331
172	H	0.185301	0.591928	0.80906
173	H	0.956109	0.477954	0.281822
174	H	0.830249	0.415361	0.645984
