data_C72H42N12O6S6_2023-05-28_17:54:39
#******************************************
#
# CIF file created by Zeo++
# Zeo++ is an open source package to
# analyze microporous materials
#
#*******************************************

_cell_length_a		41.2033   
_cell_length_b		41.5019   
_cell_length_c		7   
_cell_angle_alpha		90   
_cell_angle_beta		90   
_cell_angle_gamma		119.686   

_symmetry_space_group_name_H-M		'P1'
_symmetry_Int_Tables_number		1
_symmetry_cell_setting		Monoclinic

loop_
_symmetry_equiv_pos_as_xyz
'+x,+y,+z'

loop_
_atom_site_label
_atom_site_type_symbol
_atom_site_fract_x
_atom_site_fract_y
_atom_site_fract_z
1	C	0.37094	0.674515	0.999995
2	O	0.403912	0.680286	0.999991
3	C	0.341178	0.635948	0.999998
4	C	0.347005	0.607521	0
5	N	0.383913	0.614169	0
6	C	0.303047	0.629103	3e-06
7	O	0.276298	0.595863	5e-06
8	C	0.293846	0.658763	6e-06
9	C	0.258757	0.651605	5e-06
10	N	0.229798	0.613786	0
11	C	0.325042	0.697021	4e-06
12	O	0.317727	0.72267	7e-06
13	C	0.363785	0.705586	0.999999
14	C	0.391285	0.740488	0.999998
15	N	0.385709	0.771471	0
16	H	0.324219	0.579848	1e-06
17	H	0.251326	0.67285	8e-06
18	H	0.419139	0.745472	0.999997
19	C	0.62906	0.325485	0.999995
20	O	0.596088	0.319714	0.999991
21	C	0.658822	0.364052	0.999998
22	C	0.652995	0.392479	0
23	N	0.616087	0.385831	0
24	C	0.696953	0.370897	3e-06
25	O	0.723702	0.404137	5e-06
26	C	0.706154	0.341237	6e-06
27	C	0.741243	0.348395	5e-06
28	N	0.770202	0.386214	0
29	C	0.674958	0.302979	4e-06
30	O	0.682273	0.27733	7e-06
31	C	0.636215	0.294414	0.999999
32	C	0.608715	0.259512	0.999998
33	N	0.614291	0.228529	0
34	H	0.675781	0.420152	1e-06
35	H	0.748674	0.32715	8e-06
36	H	0.580861	0.254528	0.999997
37	C	0.593526	0.408019	0
38	C	0.585209	0.435863	0.028402
39	C	0.567886	0.432299	0.209652
40	C	0.554713	0.459076	0.288799
41	C	0.537965	0.456989	0.462562
42	C	0.530598	0.486942	0.471548
43	C	0.514424	0.495789	0.628748
44	C	0.491	0.509613	0.629452
45	C	0.473477	0.517116	0.473535
46	C	0.458713	0.495719	0.31233
47	N	0.443589	0.512148	0.201238
48	C	0.447784	0.543411	0.29039
49	C	0.43392	0.5695	0.209236
50	C	0.438729	0.600711	0.304011
51	S	0.420541	0.623613	0.178564
52	C	0.406474	0.591981	0
53	C	0.415049	0.564394	0.031368
54	C	0.466017	0.546977	0.461092
55	C	0.543949	0.506932	0.305067
56	N	0.558117	0.489551	0.194357
57	C	0.563917	0.401925	0.309794
58	S	0.581027	0.37795	0.185276
59	H	0.591236	0.457484	0.925025
60	H	0.531462	0.436167	0.571453
61	H	0.522682	0.49082	0.768665
62	H	0.48395	0.515785	0.769668
63	H	0.457577	0.470249	0.266994
64	H	0.43091	0.50241	0.074013
65	H	0.451956	0.611477	0.440476
66	H	0.408149	0.541904	0.932333
67	H	0.47344	0.568716	0.565684
68	H	0.544677	0.531995	0.255729
69	H	0.569685	0.498182	0.063906
70	H	0.551882	0.392345	0.449712
71	C	0.591377	0.18377	0
72	C	0.563472	0.147871	0.028402
73	C	0.56716	0.134268	0.209652
74	C	0.540357	0.094623	0.288799
75	C	0.542558	0.080122	0.462562
76	C	0.512529	0.043066	0.471548
77	C	0.503748	0.018268	0.628748
78	C	0.490016	0.981349	0.629452
79	C	0.482593	0.956551	0.473535
80	C	0.50417	0.963201	0.31233
81	N	0.487769	0.931908	0.201238
82	C	0.456352	0.904994	0.29039
83	C	0.430245	0.865349	0.209236
84	C	0.398876	0.839094	0.304011
85	S	0.375995	0.798337	0.178564
86	C	0.407845	0.815847	0
87	C	0.43549	0.851746	0.031368
88	C	0.452657	0.919496	0.461092
89	C	0.492373	0.036416	0.305067
90	N	0.509736	0.067709	0.194357
91	C	0.597683	0.160523	0.309794
92	S	0.621648	0.20128	0.185276
93	H	0.541725	0.132352	0.925025
94	H	0.563506	0.094377	0.571453
95	H	0.508685	0.031379	0.768665
96	H	0.483863	0.968238	0.769668
97	H	0.529751	0.987386	0.266994
98	H	0.497627	0.929036	0.074013
99	H	0.387982	0.841487	0.440476
100	H	0.458116	0.867266	0.932333
101	H	0.430782	0.905241	0.565684
102	H	0.467203	0.012231	0.255729
103	H	0.500996	0.070581	0.063906
104	H	0.607378	0.15813	0.449712
105	C	0.814517	0.407636	0
106	C	0.850739	0.415691	0.028402
107	C	0.864374	0.432858	0.209652
108	C	0.90435	0.445726	0.288799
109	C	0.918897	0.462315	0.462562
110	C	0.956293	0.469417	0.471548
111	C	0.981248	0.485368	0.628748
112	C	0.018404	0.508463	0.629452
113	C	0.04335	0.525758	0.473535
114	C	0.036537	0.540505	0.31233
115	N	0.068061	0.555369	0.201238
116	C	0.095283	0.55102	0.29039
117	C	0.135255	0.564576	0.209236
118	C	0.161815	0.55962	0.304011
119	S	0.202883	0.577475	0.178564
120	C	0.1851	0.591597	0
121	C	0.148881	0.583285	0.031368
122	C	0.080746	0.532952	0.461092
123	C	0.963098	0.456077	0.305067
124	N	0.931567	0.442165	0.194357
125	C	0.83782	0.436977	0.309794
126	S	0.796745	0.420195	0.185276
127	H	0.866459	0.40959	0.925025
128	H	0.904451	0.468882	0.571453
129	H	0.968053	0.477226	0.768665
130	H	0.031607	0.515402	0.769668
131	H	0.012092	0.54179	0.266994
132	H	0.070883	0.567979	0.074013
133	H	0.159481	0.546461	0.440476
134	H	0.133155	0.590255	0.932333
135	H	0.095197	0.525469	0.565684
136	H	0.98754	0.455199	0.255729
137	H	0.928738	0.430662	0.063906
138	H	0.840161	0.44895	0.449712
