data_C102H48N12O6S12_2023-05-14_22:07:31
#******************************************
#
# CIF file created by Zeo++
# Zeo++ is an open source package to
# analyze microporous materials
#
#*******************************************

_cell_length_a		43.7027   
_cell_length_b		44.0012   
_cell_length_c		7   
_cell_angle_alpha		90   
_cell_angle_beta		90   
_cell_angle_gamma		119.704   

_symmetry_space_group_name_H-M		'P1'
_symmetry_Int_Tables_number		1
_symmetry_cell_setting		Monoclinic

loop_
_symmetry_equiv_pos_as_xyz
'+x,+y,+z'

loop_
_atom_site_label
_atom_site_type_symbol
_atom_site_fract_x
_atom_site_fract_y
_atom_site_fract_z
1	C	0.368792	0.67407	0.999995
2	O	0.39988	0.679515	0.999991
3	C	0.340719	0.637688	0.999998
4	C	0.346203	0.610871	0
5	N	0.381003	0.617142	0
6	C	0.304767	0.63123	3e-06
7	O	0.279536	0.599872	5e-06
8	C	0.296101	0.659211	6e-06
9	C	0.263017	0.652458	5e-06
10	N	0.235701	0.61678	0
11	C	0.325527	0.695302	4e-06
12	O	0.318639	0.719499	7e-06
13	C	0.362057	0.703382	0.999999
14	C	0.387996	0.736307	0.999998
15	N	0.382749	0.765535	0
16	H	0.324711	0.584765	1e-06
17	H	0.256018	0.6725	8e-06
18	H	0.414259	0.741009	0.999997
19	C	0.631208	0.32593	0.999995
20	O	0.60012	0.320485	0.999991
21	C	0.659281	0.362312	0.999998
22	C	0.653797	0.389129	0
23	N	0.618997	0.382858	0
24	C	0.695233	0.36877	3e-06
25	O	0.720464	0.400128	5e-06
26	C	0.703899	0.340789	6e-06
27	C	0.736983	0.347542	5e-06
28	N	0.764299	0.38322	0
29	C	0.674473	0.304698	4e-06
30	O	0.681361	0.280501	7e-06
31	C	0.637943	0.296618	0.999999
32	C	0.612004	0.263693	0.999998
33	N	0.617251	0.234465	0
34	H	0.675289	0.415235	1e-06
35	H	0.743982	0.3275	8e-06
36	H	0.585741	0.258991	0.999997
37	C	0.402266	0.59621	0
38	C	0.378388	0.561173	0.012214
39	S	0.390827	0.541299	0.180879
40	C	0.428393	0.579818	0.237827
41	C	0.453364	0.581835	0.379984
42	C	0.489148	0.605501	0.383381
43	C	0.506516	0.600908	0.544058
44	C	0.483515	0.57386	0.659955
45	C	0.490982	0.561126	0.837621
46	C	0.501432	0.535261	0.839673
47	C	0.504891	0.519547	0.6724
48	C	0.515056	0.494281	0.681033
49	C	0.522185	0.483759	0.857271
50	C	0.532581	0.457952	0.87287
51	C	0.535759	0.439622	0.705805
52	C	0.5096	0.411479	0.608745
53	C	0.523173	0.401248	0.451235
54	C	0.559395	0.421554	0.432529
55	C	0.581039	0.418198	0.286541
56	C	0.569844	0.402648	0.108943
57	C	0.597734	0.40379	0
58	C	0.629456	0.41966	0.093432
59	S	0.625453	0.433316	0.315823
60	S	0.576291	0.453008	0.607911
61	C	0.539536	0.448862	0.051864
62	C	0.535962	0.465517	0.209013
63	N	0.526009	0.489923	0.198793
64	C	0.519034	0.499471	0.02709
65	C	0.508601	0.525052	0.018371
66	N	0.505463	0.539886	0.181801
67	C	0.495465	0.564281	0.175341
68	C	0.488045	0.575729	0.008505
69	S	0.441405	0.554379	0.574028
70	C	0.430985	0.607179	0.127771
71	H	0.354369	0.546167	0.931701
72	H	0.502562	0.625373	0.275092
73	H	0.534457	0.616753	0.573219
74	H	0.499615	0.52671	0.532414
75	H	0.517416	0.48299	0.547356
76	H	0.481979	0.398863	0.648037
77	H	0.506828	0.379663	0.357036
78	H	0.542907	0.391347	0.0593
79	H	0.654737	0.424002	0.043461
80	H	0.547498	0.42925	0.068503
81	H	0.54104	0.459599	0.352236
82	H	0.493618	0.574619	0.313096
83	H	0.480145	0.595523	0.011638
84	H	0.45245	0.633846	0.140083
85	C	0.403635	0.807399	0
86	C	0.43895	0.818582	0.012214
87	S	0.458825	0.850655	0.180879
88	C	0.419935	0.849566	0.237827
89	C	0.417761	0.87229	0.379984
90	C	0.393791	0.8842	0.383381
91	C	0.398299	0.905965	0.544058
92	C	0.425587	0.910075	0.659955
93	C	0.438325	0.930127	0.837621
94	C	0.464228	0.966186	0.839673
95	C	0.479982	0.985232	0.6724
96	C	0.505285	0.020414	0.681033
97	C	0.515804	0.037933	0.857271
98	C	0.541649	0.073881	0.87287
99	C	0.560031	0.095249	0.705805
100	C	0.588438	0.097319	0.608745
101	C	0.598627	0.120931	0.451235
102	C	0.578027	0.136616	0.432529
103	C	0.581268	0.161385	0.286541
104	C	0.596944	0.165756	0.108943
105	C	0.595632	0.19224	0
106	C	0.579512	0.207878	0.093432
107	S	0.565826	0.190339	0.315823
108	S	0.546352	0.12208	0.607911
109	C	0.550732	0.089804	0.051864
110	C	0.534035	0.06971	0.209013
111	N	0.509594	0.035593	0.198793
112	C	0.500051	0.019195	0.02709
113	C	0.474434	0.983434	0.018371
114	N	0.459561	0.965581	0.181801
115	C	0.435132	0.93143	0.175341
116	C	0.423685	0.912703	0.008505
117	S	0.445394	0.88774	0.574028
118	C	0.392453	0.824935	0.127771
119	H	0.454156	0.809713	0.931701
120	H	0.373763	0.877731	0.275092
121	H	0.382226	0.917883	0.573219
122	H	0.472823	0.972887	0.532414
123	H	0.516605	0.033975	0.547356
124	H	0.601267	0.082508	0.648037
125	H	0.620393	0.126201	0.357036
126	H	0.608449	0.150316	0.0593
127	H	0.575002	0.228596	0.043461
128	H	0.570373	0.117184	0.068503
129	H	0.539945	0.080621	0.352236
130	H	0.424765	0.919324	0.313096
131	H	0.403861	0.885203	0.011638
132	H	0.365556	0.819683	0.140083
133	C	0.193552	0.595849	0
134	C	0.182115	0.619703	0.012214
135	S	0.149801	0.607503	0.180879
136	C	0.151126	0.570074	0.237827
137	C	0.128327	0.545333	0.379984
138	C	0.116514	0.509757	0.383381
139	C	0.094638	0.492585	0.544058
140	C	0.090351	0.515523	0.659955
141	C	0.070145	0.508204	0.837621
142	C	0.033793	0.49801	0.839673
143	C	0.01458	0.494679	0.6724
144	C	0.979112	0.484763	0.681033
145	C	0.961463	0.477765	0.857271
146	C	0.925223	0.467625	0.87287
147	C	0.903663	0.464587	0.705805
148	C	0.901416	0.490659	0.608745
149	C	0.877653	0.477279	0.451235
150	C	0.86203	0.441288	0.432529
151	C	0.837146	0.419875	0.286541
152	C	0.832665	0.431054	0.108943
153	C	0.806087	0.403428	0
154	C	0.790485	0.37192	0.093432
155	S	0.808173	0.375803	0.315823
156	S	0.876811	0.42437	0.607911
157	C	0.909185	0.460792	0.051864
158	C	0.929456	0.464231	0.209013
159	N	0.963849	0.473942	0.198793
160	C	0.980367	0.480792	0.02709
161	C	0.016418	0.490972	0.018371
162	N	0.034428	0.493991	0.181801
163	C	0.068856	0.503747	0.175341
164	C	0.087724	0.511026	0.008505
165	S	0.112653	0.557339	0.574028
166	C	0.176015	0.567343	0.127771
167	H	0.190928	0.643578	0.931701
168	H	0.123128	0.496354	0.275092
169	H	0.08277	0.464821	0.573219
170	H	0.027015	0.499861	0.532414
171	H	0.965432	0.482493	0.547356
172	H	0.916208	0.518087	0.648037
173	H	0.872233	0.493593	0.357036
174	H	0.848097	0.457795	0.0593
175	H	0.769714	0.346859	0.043461
176	H	0.881582	0.453023	0.068503
177	H	0.918468	0.459238	0.352236
178	H	0.08107	0.505514	0.313096
179	H	0.115447	0.518732	0.011638
180	H	0.181447	0.545929	0.140083
