data_C96H48N12O6S12_2023-05-11_11:09:19
#******************************************
#
# CIF file created by Zeo++
# Zeo++ is an open source package to
# analyze microporous materials
#
#*******************************************

_cell_length_a		55.6614   
_cell_length_b		55.9598   
_cell_length_c		7   
_cell_angle_alpha		90   
_cell_angle_beta		90   
_cell_angle_gamma		119.767   

_symmetry_space_group_name_H-M		'P1'
_symmetry_Int_Tables_number		1
_symmetry_cell_setting		Monoclinic

loop_
_symmetry_equiv_pos_as_xyz
'+x,+y,+z'

loop_
_atom_site_label
_atom_site_type_symbol
_atom_site_fract_x
_atom_site_fract_y
_atom_site_fract_z
1	C	0.361181	0.672492	0.999995
2	O	0.385596	0.676776	0.999991
3	C	0.339103	0.643866	0.999998
4	C	0.343382	0.622767	0
5	N	0.370711	0.627701	0
6	C	0.310869	0.638786	3e-06
7	O	0.291027	0.614113	5e-06
8	C	0.304093	0.6608	6e-06
9	C	0.27811	0.655488	5e-06
10	N	0.256627	0.627416	0
11	C	0.327233	0.689197	4e-06
12	O	0.321849	0.708235	7e-06
13	C	0.355923	0.695554	0.999999
14	C	0.376322	0.72146	0.999998
15	N	0.372232	0.744456	0
16	H	0.326481	0.602226	1e-06
17	H	0.272635	0.671256	8e-06
18	H	0.396947	0.725159	0.999997
19	C	0.638819	0.327508	0.999995
20	O	0.614404	0.323224	0.999991
21	C	0.660897	0.356134	0.999998
22	C	0.656618	0.377233	0
23	N	0.629289	0.372299	0
24	C	0.689131	0.361214	3e-06
25	O	0.708973	0.385887	5e-06
26	C	0.695907	0.3392	6e-06
27	C	0.72189	0.344512	5e-06
28	N	0.743373	0.372584	0
29	C	0.672767	0.310803	4e-06
30	O	0.678151	0.291765	7e-06
31	C	0.644077	0.304446	0.999999
32	C	0.623678	0.27854	0.999998
33	N	0.627768	0.255544	0
34	H	0.673519	0.397774	1e-06
35	H	0.727365	0.328744	8e-06
36	H	0.603053	0.274841	0.999997
37	C	0.612615	0.388768	0
38	C	0.585638	0.377597	0.941252
39	C	0.57383	0.393685	0.005674
40	C	0.592362	0.416238	0.11116
41	C	0.585482	0.438004	0.200027
42	C	0.60363	0.459518	0.313313
43	S	0.590149	0.479562	0.387859
44	C	0.559991	0.46001	0.264209
45	C	0.53854	0.467812	0.261537
46	C	0.526491	0.470771	0.427676
47	C	0.506174	0.478435	0.416097
48	C	0.498083	0.483119	0.237703
49	C	0.477355	0.49224	0.216268
50	C	0.466737	0.493543	0.037716
51	C	0.447661	0.502782	0.025263
52	C	0.43924	0.510483	0.190975
53	C	0.41995	0.520884	0.181682
54	C	0.425335	0.547138	0.137511
55	C	0.400832	0.54932	0.134126
56	C	0.399671	0.576162	0.082441
57	C	0.422608	0.601184	0.038517
58	C	0.415417	0.621669	0.989992
59	C	0.387385	0.611232	0
60	S	0.369815	0.577854	0.071996
61	C	0.37772	0.524623	0.179544
62	S	0.385574	0.499174	0.224966
63	C	0.450797	0.508757	0.362719
64	N	0.4694	0.499884	0.378326
65	N	0.509108	0.479546	0.07343
66	C	0.528793	0.472098	0.089679
67	C	0.560164	0.438218	0.172962
68	S	0.623646	0.417575	0.133338
69	H	0.574774	0.359048	0.857502
70	H	0.552738	0.388632	0.975574
71	H	0.624238	0.464686	0.358796
72	H	0.532874	0.46753	0.567287
73	H	0.496905	0.480974	0.546969
74	H	0.473359	0.487599	0.908942
75	H	0.43975	0.50413	0.885744
76	H	0.445965	0.563775	0.105908
77	H	0.443644	0.604902	0.038039
78	H	0.430136	0.642629	0.94869
79	H	0.356406	0.519926	0.188786
80	H	0.445505	0.514845	0.495962
81	H	0.536995	0.469835	0.953489
82	H	0.542883	0.423374	0.087811
83	C	0.610752	0.222322	0
84	C	0.622083	0.20667	0.941252
85	C	0.606002	0.17894	0.005674
86	C	0.583294	0.174883	0.11116
87	C	0.561495	0.146391	0.200027
88	C	0.539831	0.142987	0.313313
89	S	0.51979	0.109659	0.387859
90	C	0.539541	0.099192	0.264209
91	C	0.531817	0.07014	0.261537
92	C	0.528905	0.055238	0.427676
93	C	0.521313	0.027448	0.416097
94	C	0.516653	0.014758	0.237703
95	C	0.507602	0.98511	0.216268
96	C	0.506344	0.973276	0.037716
97	C	0.497167	0.94515	0.025263
98	C	0.489482	0.929129	0.190975
99	C	0.47914	0.899634	0.181682
100	C	0.452782	0.878847	0.137511
101	C	0.450708	0.85236	0.134126
102	C	0.42379	0.824491	0.082441
103	C	0.398586	0.822348	0.038517
104	C	0.378073	0.794824	0.989992
105	C	0.388673	0.777394	0
106	S	0.422233	0.79318	0.071996
107	C	0.475587	0.854005	0.179544
108	S	0.501077	0.887129	0.224966
109	C	0.491159	0.942315	0.362719
110	N	0.499972	0.969608	0.378326
111	N	0.520186	0.029255	0.07343
112	C	0.527563	0.056201	0.089679
113	C	0.561399	0.121054	0.172962
114	S	0.581807	0.204597	0.133338
115	H	0.640739	0.214352	0.857502
116	H	0.611169	0.163038	0.975574
117	H	0.53455	0.158293	0.358796
118	H	0.532126	0.064797	0.567287
119	H	0.51881	0.015724	0.546969
120	H	0.512275	0.985764	0.908942
121	H	0.495852	0.935959	0.885744
122	H	0.435998	0.88276	0.105908
123	H	0.394758	0.839522	0.038039
124	H	0.356981	0.788568	0.94869
125	H	0.480399	0.83753	0.188786
126	H	0.485078	0.931005	0.495962
127	H	0.529795	0.066594	0.953489
128	H	0.576368	0.118679	0.087811
129	C	0.776203	0.388483	0
130	C	0.791849	0.415306	0.941252
131	C	0.819738	0.426949	0.005674
132	C	0.823914	0.408452	0.11116
133	C	0.852594	0.415178	0.200027
134	C	0.85611	0.397068	0.313313
135	S	0.889632	0.410352	0.387859
136	C	0.900038	0.440371	0.264209
137	C	0.929214	0.461621	0.261537
138	C	0.944174	0.473564	0.427676
139	C	0.972083	0.49369	0.416097
140	C	0.984834	0.501697	0.237703
141	C	0.014613	0.522224	0.216268
142	C	0.026489	0.532754	0.037716
143	C	0.054743	0.551641	0.025263
144	C	0.070849	0.559961	0.190975
145	C	0.10048	0.579055	0.181682
146	C	0.121453	0.573588	0.137511
147	C	0.14803	0.597893	0.134126
148	C	0.176109	0.59892	0.082441
149	C	0.178376	0.576041	0.038517
150	C	0.20608	0.583081	0.989992
151	C	0.223513	0.610947	0
152	S	0.207522	0.628539	0.071996
153	C	0.146263	0.620944	0.179544
154	S	0.11292	0.61327	0.224966
155	C	0.057614	0.548501	0.362719
156	N	0.030198	0.530081	0.378326
157	N	0.970276	0.490773	0.07343
158	C	0.943214	0.471274	0.089679
159	C	0.878008	0.440301	0.172962
160	S	0.794117	0.377402	0.133338
161	H	0.784057	0.426174	0.857502
162	H	0.835664	0.447903	0.975574
163	H	0.840782	0.376594	0.358796
164	H	0.934571	0.467246	0.567287
165	H	0.983855	0.502875	0.546969
166	H	0.013936	0.52621	0.908942
167	H	0.063968	0.559484	0.885744
168	H	0.117607	0.553038	0.105908
169	H	0.161169	0.555149	0.038039
170	H	0.212454	0.568377	0.94869
171	H	0.162766	0.642117	0.188786
172	H	0.068987	0.553723	0.495962
173	H	0.93278	0.463145	0.953489
174	H	0.880319	0.45752	0.087811
