data_C120H60N6O6S18_2023-05-13_08:21:02
#******************************************
#
# CIF file created by Zeo++
# Zeo++ is an open source package to
# analyze microporous materials
#
#*******************************************

_cell_length_a		57.7161   
_cell_length_b		58.0145   
_cell_length_c		7   
_cell_angle_alpha		90   
_cell_angle_beta		90   
_cell_angle_gamma		119.775   

_symmetry_space_group_name_H-M		'P1'
_symmetry_Int_Tables_number		1
_symmetry_cell_setting		Monoclinic

loop_
_symmetry_equiv_pos_as_xyz
'+x,+y,+z'

loop_
_atom_site_label
_atom_site_type_symbol
_atom_site_fract_x
_atom_site_fract_y
_atom_site_fract_z
1	C	0.360191	0.672286	0.999995
2	O	0.383737	0.676418	0.999991
3	C	0.338894	0.644672	0.999998
4	C	0.343017	0.624318	0
5	N	0.369374	0.629078	0
6	C	0.311664	0.639771	3e-06
7	O	0.292525	0.61597	5e-06
8	C	0.305133	0.661008	6e-06
9	C	0.280074	0.655883	5e-06
10	N	0.259352	0.628803	0
11	C	0.327454	0.688401	4e-06
12	O	0.322265	0.706766	7e-06
13	C	0.355123	0.694533	0.999999
14	C	0.3748	0.719524	0.999998
15	N	0.37086	0.741707	0
16	H	0.326714	0.604504	1e-06
17	H	0.274797	0.671094	8e-06
18	H	0.394692	0.723092	0.999997
19	C	0.639809	0.327714	0.999995
20	O	0.616263	0.323582	0.999991
21	C	0.661106	0.355328	0.999998
22	C	0.656983	0.375682	0
23	N	0.630626	0.370922	0
24	C	0.688336	0.360229	3e-06
25	O	0.707475	0.38403	5e-06
26	C	0.694867	0.338992	6e-06
27	C	0.719926	0.344117	5e-06
28	N	0.740648	0.371197	0
29	C	0.672546	0.311599	4e-06
30	O	0.677735	0.293234	7e-06
31	C	0.644877	0.305467	0.999999
32	C	0.6252	0.280476	0.999998
33	N	0.62914	0.258293	0
34	H	0.673286	0.395496	1e-06
35	H	0.725203	0.328906	8e-06
36	H	0.605308	0.276908	0.999997
37	C	0.614548	0.386809	0
38	C	0.588272	0.377281	0.046014
39	C	0.584784	0.396735	0.147206
40	C	0.608475	0.420285	0.175583
41	C	0.612475	0.444011	0.273246
42	C	0.636253	0.467171	0.30604
43	C	0.632871	0.486594	0.408834
44	C	0.60644	0.477962	0.449678
45	C	0.596133	0.4923	0.552905
46	C	0.602981	0.50225	0.736212
47	C	0.589321	0.515861	0.795343
48	C	0.572674	0.516091	0.654981
49	C	0.555858	0.528475	0.65987
50	C	0.568426	0.555866	0.624236
51	C	0.553943	0.569073	0.628407
52	C	0.526716	0.55499	0.668538
53	C	0.513121	0.52735	0.7053
54	C	0.485276	0.512691	0.745881
55	C	0.468541	0.525175	0.752594
56	C	0.460761	0.533887	0.910108
57	C	0.444252	0.544815	0.859873
58	C	0.439848	0.544037	0.665013
59	C	0.423736	0.552901	0.568165
60	C	0.397805	0.546016	0.612093
61	C	0.387711	0.55872	0.489789
62	C	0.406218	0.575258	0.355791
63	C	0.403001	0.591385	0.211263
64	C	0.421924	0.609159	0.084485
65	C	0.41181	0.621904	0.962815
66	C	0.385452	0.613191	0
67	S	0.372878	0.590245	0.176077
68	S	0.43564	0.574668	0.38077
69	S	0.455275	0.529546	0.545865
70	C	0.472797	0.485391	0.785128
71	C	0.48736	0.472276	0.783215
72	C	0.51454	0.486334	0.742015
73	C	0.528064	0.513877	0.702067
74	S	0.573735	0.499993	0.45268
75	S	0.586187	0.446574	0.366986
76	S	0.634698	0.418316	0.074099
77	H	0.572245	0.357579	0.010523
78	H	0.565534	0.393279	0.197456
79	H	0.655602	0.470334	0.26023
80	H	0.649115	0.505955	0.448104
81	H	0.616774	0.499516	0.825239
82	H	0.591577	0.524961	0.934876
83	H	0.589665	0.566934	0.591967
84	H	0.563744	0.590267	0.599799
85	H	0.51602	0.566034	0.670604
86	H	0.46682	0.532787	0.054811
87	H	0.43634	0.553137	0.961883
88	H	0.386326	0.532329	0.725174
89	H	0.367669	0.55574	0.501953
90	H	0.442349	0.613187	0.078405
91	H	0.423447	0.636528	0.854979
92	H	0.451542	0.474269	0.81651
93	H	0.477663	0.451144	0.8134
94	H	0.525251	0.475304	0.741479
95	C	0.612725	0.226244	0
96	C	0.622399	0.209647	0.046014
97	C	0.602904	0.186819	0.147206
98	C	0.579179	0.186892	0.175583
99	C	0.555366	0.167243	0.273246
100	C	0.532031	0.16779	0.30604
101	C	0.512567	0.145098	0.408834
102	C	0.521344	0.127455	0.449678
103	C	0.50701	0.102951	0.552905
104	C	0.497001	0.099844	0.736212
105	C	0.483411	0.072735	0.795343
106	C	0.483257	0.055982	0.654981
107	C	0.470912	0.026962	0.65987
108	C	0.443385	0.01217	0.624236
109	C	0.430205	0.984647	0.628407
110	C	0.444452	0.97164	0.668538
111	C	0.472233	0.98566	0.7053
112	C	0.487061	0.972613	0.745881
113	C	0.474616	0.943575	0.752594
114	C	0.465915	0.92718	0.910108
115	C	0.455029	0.899914	0.859873
116	C	0.45583	0.896317	0.665013
117	C	0.447012	0.871501	0.568165
118	C	0.454035	0.852615	0.612093
119	C	0.44134	0.829949	0.489789
120	C	0.424669	0.831855	0.355791
121	C	0.40851	0.812608	0.211263
122	C	0.390599	0.813698	0.084485
123	C	0.377862	0.79097	0.962815
124	C	0.38672	0.773481	0
125	S	0.409789	0.783842	0.176077
126	S	0.425128	0.861647	0.38077
127	S	0.470293	0.926056	0.545865
128	C	0.514497	0.987404	0.785128
129	C	0.527584	0.014915	0.783215
130	C	0.513363	0.0279	0.742015
131	C	0.485678	0.013905	0.702067
132	S	0.499397	0.07306	0.45268
133	S	0.552915	0.138599	0.366986
134	S	0.581035	0.214881	0.074099
135	H	0.642231	0.213352	0.010523
136	H	0.606458	0.171152	0.197456
137	H	0.528771	0.183847	0.26023
138	H	0.493076	0.141948	0.448104
139	H	0.49968	0.116256	0.825239
140	H	0.474275	0.065915	0.934876
141	H	0.432189	0.022234	0.591967
142	H	0.408905	0.973277	0.599799
143	H	0.433424	0.950029	0.670604
144	H	0.46699	0.934289	0.054811
145	H	0.446719	0.883777	0.961883
146	H	0.467813	0.854845	0.725174
147	H	0.444418	0.813021	0.501953
148	H	0.386467	0.829962	0.078405
149	H	0.363144	0.787964	0.854979
150	H	0.525747	0.977377	0.81651
151	H	0.548821	0.026326	0.8134
152	H	0.524376	0.049512	0.741479
153	C	0.772313	0.386535	0
154	C	0.788914	0.41266	0.046014
155	C	0.811898	0.416034	0.147206
156	C	0.811931	0.392411	0.175583
157	C	0.831745	0.388334	0.273246
158	C	0.831302	0.364627	0.30604
159	C	0.854147	0.367896	0.408834
160	C	0.871802	0.394171	0.449678
161	C	0.896442	0.404337	0.552905
162	C	0.899604	0.397495	0.736212
163	C	0.926853	0.410992	0.795343
164	C	0.943655	0.427516	0.654981
165	C	0.972816	0.444152	0.65987
166	C	0.987774	0.431552	0.624236
167	C	0.015437	0.445868	0.628407
168	C	0.028417	0.472958	0.668538
169	C	0.014231	0.486578	0.7053
170	C	0.027249	0.514284	0.745881
171	C	0.056428	0.530839	0.752594
172	C	0.07291	0.538521	0.910108
173	C	0.100305	0.554859	0.859873
174	C	0.103908	0.559234	0.665013
175	C	0.128837	0.575187	0.568165
176	C	0.147745	0.600958	0.612093
177	C	0.170535	0.61092	0.489789
178	C	0.168699	0.592475	0.355791
179	C	0.188075	0.595595	0.211263
180	C	0.187062	0.576731	0.084485
181	C	0.209913	0.586714	0.962815
182	C	0.227413	0.612916	0
183	S	0.216919	0.625501	0.176077
184	S	0.138817	0.563273	0.38077
185	S	0.074018	0.543987	0.545865
186	C	0.012291	0.526793	0.785128
187	C	0.984641	0.512397	0.783215
188	C	0.971683	0.485355	0.742015
189	C	0.985844	0.471806	0.702067
190	S	0.926454	0.426535	0.45268
191	S	0.860483	0.414416	0.366986
192	S	0.783853	0.366391	0.074099
193	H	0.785109	0.428657	0.010523
194	H	0.827593	0.435157	0.197456
195	H	0.815213	0.345407	0.26023
196	H	0.857395	0.351685	0.448104
197	H	0.883131	0.383816	0.825239
198	H	0.933734	0.408712	0.934876
199	H	0.977732	0.41042	0.591967
200	H	0.026937	0.436045	0.599799
201	H	0.050141	0.483525	0.670604
202	H	0.065776	0.532513	0.054811
203	H	0.116526	0.562675	0.961883
204	H	0.145447	0.612414	0.725174
205	H	0.187498	0.630828	0.501953
206	H	0.170769	0.55644	0.078405
207	H	0.212995	0.575097	0.854979
208	H	0.022296	0.547942	0.81651
209	H	0.973101	0.522118	0.8134
210	H	0.949958	0.474772	0.741479
