data_C60H24N12O6S12_2023-05-10_22:40:08
#******************************************
#
# CIF file created by Zeo++
# Zeo++ is an open source package to
# analyze microporous materials
#
#*******************************************

_cell_length_a		40.5795   
_cell_length_b		40.8781   
_cell_length_c		7   
_cell_angle_alpha		90   
_cell_angle_beta		90   
_cell_angle_gamma		119.681   

_symmetry_space_group_name_H-M		'P1'
_symmetry_Int_Tables_number		1
_symmetry_cell_setting		Monoclinic

loop_
_symmetry_equiv_pos_as_xyz
'+x,+y,+z'

loop_
_atom_site_label
_atom_site_type_symbol
_atom_site_fract_x
_atom_site_fract_y
_atom_site_fract_z
1	C	0.371517	0.674634	0.999995
2	O	0.404996	0.680493	0.999991
3	C	0.341302	0.635481	0.999998
4	C	0.347221	0.606622	0
5	N	0.384696	0.613371	0
6	C	0.302585	0.628532	3e-06
7	O	0.275428	0.594786	5e-06
8	C	0.29324	0.658643	6e-06
9	C	0.257612	0.651376	5e-06
10	N	0.228212	0.612981	0
11	C	0.324912	0.697483	4e-06
12	O	0.317482	0.723522	7e-06
13	C	0.364249	0.706178	0.999999
14	C	0.392168	0.741611	0.999998
15	N	0.386503	0.773065	0
16	H	0.324087	0.578527	1e-06
17	H	0.250065	0.672944	8e-06
18	H	0.42045	0.746671	0.999997
19	C	0.628483	0.325366	0.999995
20	O	0.595004	0.319507	0.999991
21	C	0.658698	0.364519	0.999998
22	C	0.652779	0.393378	0
23	N	0.615304	0.386629	0
24	C	0.697415	0.371468	3e-06
25	O	0.724572	0.405214	5e-06
26	C	0.70676	0.341357	6e-06
27	C	0.742388	0.348624	5e-06
28	N	0.771788	0.387019	0
29	C	0.675088	0.302517	4e-06
30	O	0.682518	0.276478	7e-06
31	C	0.635751	0.293822	0.999999
32	C	0.607832	0.258389	0.999998
33	N	0.613497	0.226935	0
34	H	0.675913	0.421473	1e-06
35	H	0.749935	0.327056	8e-06
36	H	0.57955	0.253329	0.999997
37	C	0.407606	0.590845	0
38	C	0.39828	0.600017	0.173178
39	S	0.414823	0.583751	0.353974
40	C	0.432903	0.56597	0.187239
41	C	0.454846	0.544393	0.239689
42	C	0.461906	0.537453	0.423012
43	S	0.486367	0.5134	0.426621
44	C	0.48797	0.511821	0.181036
45	C	0.506325	0.493771	0.083871
46	C	0.524481	0.475928	0.164243
47	C	0.539418	0.461235	0.025205
48	C	0.561604	0.439428	0.066024
49	N	0.574143	0.427092	0.925598
50	C	0.592394	0.409155	0
51	C	0.593707	0.407876	0.196169
52	S	0.571149	0.430058	0.292471
53	C	0.532318	0.468203	0.841918
54	S	0.507895	0.492212	0.838291
55	C	0.46983	0.529657	0.100914
56	N	0.4273	0.571479	0.007665
57	H	0.38308	0.614964	0.201679
58	H	0.454099	0.545131	0.556369
59	H	0.526974	0.473486	0.316942
60	H	0.606366	0.395438	0.284903
61	H	0.540352	0.460297	0.709731
62	H	0.46712	0.532321	0.948392
63	C	0.408976	0.818116	0
64	C	0.399826	0.799775	0.173178
65	S	0.416052	0.832306	0.353974
66	C	0.433791	0.867864	0.187239
67	C	0.455317	0.911016	0.239689
68	C	0.462241	0.924898	0.423012
69	S	0.486237	0.973001	0.426621
70	C	0.487812	0.976157	0.181036
71	C	0.505819	0.012253	0.083871
72	C	0.52362	0.047948	0.164243
73	C	0.538278	0.077328	0.025205
74	C	0.560033	0.120949	0.066024
75	N	0.57234	0.145613	0.925598
76	C	0.590234	0.181495	0
77	C	0.59151	0.184065	0.196169
78	S	0.569381	0.139704	0.292471
79	C	0.531326	0.063378	0.841918
80	S	0.507374	0.015355	0.838291
81	C	0.470018	0.940485	0.100914
82	N	0.428296	0.856846	0.007665
83	H	0.384914	0.769883	0.201679
84	H	0.454581	0.909543	0.556369
85	H	0.526056	0.052841	0.316942
86	H	0.603918	0.208949	0.284903
87	H	0.539214	0.079184	0.709731
88	H	0.467361	0.935156	0.948392
89	C	0.182829	0.590455	0
90	C	0.201305	0.599624	0.173178
91	S	0.168536	0.583359	0.353974
92	C	0.132716	0.565582	0.187239
93	C	0.089247	0.544007	0.239689
94	C	0.075264	0.537066	0.423012
95	S	0.026807	0.513015	0.426621
96	C	0.023629	0.511439	0.181036
97	C	0.987267	0.493392	0.083871
98	C	0.95131	0.475541	0.164243
99	C	0.921715	0.460854	0.025205
100	C	0.877774	0.43904	0.066024
101	N	0.852928	0.426711	0.925598
102	C	0.816783	0.408766	0
103	C	0.814194	0.407475	0.196169
104	S	0.858881	0.429655	0.292471
105	C	0.935766	0.467835	0.841918
106	S	0.984142	0.491849	0.838291
107	C	0.059562	0.529274	0.100914
108	N	0.143815	0.571092	0.007665
109	H	0.231417	0.61457	0.201679
110	H	0.090731	0.544742	0.556369
111	H	0.946381	0.473089	0.316942
112	H	0.789127	0.395029	0.284903
113	H	0.919845	0.459935	0.709731
114	H	0.06493	0.531939	0.948392
