data_C72H36N6O12_2023-05-27_12:03:41
#******************************************
#
# CIF file created by Zeo++
# Zeo++ is an open source package to
# analyze microporous materials
#
#*******************************************

_cell_length_a		35.1432   
_cell_length_b		35.4418   
_cell_length_c		7   
_cell_angle_alpha		90   
_cell_angle_beta		90   
_cell_angle_gamma		119.632   

_symmetry_space_group_name_H-M		'P1'
_symmetry_Int_Tables_number		1
_symmetry_cell_setting		Monoclinic

loop_
_symmetry_equiv_pos_as_xyz
'+x,+y,+z'

loop_
_atom_site_label
_atom_site_type_symbol
_atom_site_fract_x
_atom_site_fract_y
_atom_site_fract_z
1	C	0.377415	0.675852	0.999995
2	O	0.416065	0.682606	0.999991
3	C	0.34257	0.630715	0.999998
4	C	0.349437	0.597445	0
5	N	0.392702	0.605226	0
6	C	0.297872	0.622704	3e-06
7	O	0.266553	0.5838	5e-06
8	C	0.287046	0.657416	6e-06
9	C	0.245916	0.64904	5e-06
10	N	0.212011	0.604777	0
11	C	0.323574	0.702193	4e-06
12	O	0.314964	0.732211	7e-06
13	C	0.368987	0.712216	0.999999
14	C	0.401184	0.753064	0.999998
15	N	0.394607	0.789325	0
16	H	0.322758	0.565057	1e-06
17	H	0.237176	0.673903	8e-06
18	H	0.433835	0.758897	0.999997
19	C	0.622585	0.324148	0.999995
20	O	0.583935	0.317394	0.999991
21	C	0.65743	0.369285	0.999998
22	C	0.650563	0.402555	0
23	N	0.607298	0.394774	0
24	C	0.702128	0.377296	3e-06
25	O	0.733447	0.4162	5e-06
26	C	0.712954	0.342584	6e-06
27	C	0.754084	0.35096	5e-06
28	N	0.787989	0.395223	0
29	C	0.676426	0.297807	4e-06
30	O	0.685036	0.267789	7e-06
31	C	0.631013	0.287784	0.999999
32	C	0.598816	0.246936	0.999998
33	N	0.605393	0.210675	0
34	H	0.677242	0.434943	1e-06
35	H	0.762824	0.326097	8e-06
36	H	0.566165	0.241103	0.999997
37	O	0.496167	0.503759	0.805695
38	C	0.497927	0.50247	0.631485
39	C	0.477899	0.522211	0.511601
40	C	0.47983	0.520805	0.320622
41	C	0.458842	0.541113	0.21098
42	C	0.479338	0.586366	0.192788
43	C	0.459486	0.605426	0.087512
44	C	0.419182	0.579257	0
45	C	0.398537	0.534219	0.016573
46	C	0.418384	0.51515	0.12183
47	C	0.501348	0.499927	0.226667
48	C	0.521148	0.480984	0.318317
49	C	0.54187	0.460349	0.208647
50	C	0.531088	0.417311	0.246111
51	C	0.550442	0.397529	0.142171
52	C	0.580818	0.420743	0
53	C	0.592129	0.463572	0.961194
54	C	0.572764	0.483309	0.065383
55	C	0.520568	0.480616	0.531935
56	O	0.537333	0.463668	0.626712
57	H	0.461973	0.537255	0.587614
58	H	0.510872	0.607103	0.259966
59	H	0.475678	0.64056	0.074611
60	H	0.367104	0.513737	0.948428
61	H	0.401962	0.47996	0.133983
62	H	0.500538	0.500046	0.070984
63	H	0.507687	0.398719	0.357782
64	H	0.541715	0.364198	0.174194
65	H	0.616037	0.481908	0.851173
66	H	0.582421	0.516948	0.034245
67	O	0.495795	0.992258	0.805695
68	C	0.497077	0.995277	0.631485
69	C	0.47739	0.955896	0.511601
70	C	0.478788	0.959198	0.320622
71	C	0.458537	0.918305	0.21098
72	C	0.412916	0.893636	0.192788
73	C	0.393911	0.855103	0.087512
74	C	0.420504	0.841262	0
75	C	0.465911	0.865572	0.016573
76	C	0.484924	0.904107	0.12183
77	C	0.499606	0.00118	0.226667
78	C	0.518494	0.039545	0.318317
79	C	0.539075	0.080498	0.208647
80	C	0.582399	0.112567	0.246111
81	C	0.602133	0.151322	0.142171
82	C	0.578583	0.15829	0
83	C	0.535465	0.126951	0.961194
84	C	0.515777	0.08823	0.065383
85	C	0.518869	0.039337	0.531935
86	O	0.535774	0.072723	0.626712
87	H	0.462391	0.925229	0.587614
88	H	0.391847	0.904205	0.259966
89	H	0.358489	0.836225	0.074611
90	H	0.486723	0.854849	0.948428
91	H	0.520404	0.922813	0.133983
92	H	0.499493	0.000262	0.070984
93	H	0.601253	0.107903	0.357782
94	H	0.635689	0.175787	0.174194
95	H	0.516865	0.132371	0.851173
96	H	0.481905	0.064379	0.034245
97	O	0.007358	0.50331	0.805695
98	C	0.004316	0.501581	0.631485
99	C	0.044031	0.521221	0.511601
100	C	0.040702	0.519324	0.320622
101	C	0.081941	0.539908	0.21098
102	C	0.107065	0.519325	0.192788
103	C	0.145923	0.538798	0.087512
104	C	0.159634	0.578808	0
105	C	0.134872	0.599537	0.016573
106	C	0.096012	0.58007	0.12183
107	C	0.998365	0.49822	0.226667
108	C	0.959677	0.478799	0.318317
109	C	0.918375	0.45848	0.208647
110	C	0.885833	0.46945	0.246111
111	C	0.846746	0.450476	0.142171
112	C	0.839918	0.420294	0
113	C	0.871726	0.408803	0.961194
114	C	0.910779	0.427788	0.065383
115	C	0.959883	0.479375	0.531935
116	O	0.926212	0.462937	0.626712
117	H	0.074956	0.536843	0.587614
118	H	0.096601	0.488019	0.259966
119	H	0.165153	0.522541	0.074611
120	H	0.145493	0.630742	0.948428
121	H	0.076954	0.596554	0.133983
122	H	0.999289	0.499019	0.070984
123	H	0.89038	0.492706	0.357782
124	H	0.821916	0.459343	0.174194
125	H	0.866418	0.385048	0.851173
126	H	0.934994	0.418	0.034245
