data_C90H42N6O6S6_2023-05-13_08:57:17
#******************************************
#
# CIF file created by Zeo++
# Zeo++ is an open source package to
# analyze microporous materials
#
#*******************************************

_cell_length_a		41.2525   
_cell_length_b		41.551   
_cell_length_c		7   
_cell_angle_alpha		90   
_cell_angle_beta		90   
_cell_angle_gamma		119.686   

_symmetry_space_group_name_H-M		'P1'
_symmetry_Int_Tables_number		1
_symmetry_cell_setting		Monoclinic

loop_
_symmetry_equiv_pos_as_xyz
'+x,+y,+z'

loop_
_atom_site_label
_atom_site_type_symbol
_atom_site_fract_x
_atom_site_fract_y
_atom_site_fract_z
1	C	0.370895	0.674506	0.999995
2	O	0.403828	0.68027	0.999991
3	C	0.341169	0.635985	0.999998
4	C	0.346988	0.607591	0
5	N	0.383852	0.614231	0
6	C	0.303083	0.629147	3e-06
7	O	0.276365	0.595946	5e-06
8	C	0.293893	0.658772	6e-06
9	C	0.258846	0.651623	5e-06
10	N	0.229921	0.613848	0
11	C	0.325052	0.696986	4e-06
12	O	0.317746	0.722604	7e-06
13	C	0.363749	0.70554	0.999999
14	C	0.391216	0.740401	0.999998
15	N	0.385647	0.771347	0
16	H	0.324229	0.57995	1e-06
17	H	0.251423	0.672843	8e-06
18	H	0.419038	0.745379	0.999997
19	C	0.629105	0.325494	0.999995
20	O	0.596172	0.31973	0.999991
21	C	0.658831	0.364015	0.999998
22	C	0.653012	0.392409	0
23	N	0.616148	0.385769	0
24	C	0.696917	0.370853	3e-06
25	O	0.723635	0.404054	5e-06
26	C	0.706107	0.341228	6e-06
27	C	0.741154	0.348377	5e-06
28	N	0.770079	0.386152	0
29	C	0.674948	0.303014	4e-06
30	O	0.682254	0.277396	7e-06
31	C	0.636251	0.29446	0.999999
32	C	0.608784	0.259599	0.999998
33	N	0.614353	0.228653	0
34	H	0.675771	0.42005	1e-06
35	H	0.748577	0.327157	8e-06
36	H	0.580962	0.254621	0.999997
37	C	0.406386	0.592069	0
38	C	0.37617	0.557046	0.012013
39	C	0.387252	0.530789	0.066319
40	C	0.425388	0.54709	0.092567
41	C	0.447387	0.52967	0.148093
42	C	0.456695	0.53085	0.341507
43	C	0.477051	0.514365	0.404115
44	C	0.488442	0.496246	0.274972
45	C	0.508838	0.479726	0.338493
46	C	0.520305	0.461571	0.210738
47	C	0.511847	0.459164	0.014256
48	C	0.523069	0.440906	0.879969
49	C	0.543839	0.422261	0.936662
50	C	0.53035	0.387145	0.011938
51	C	0.559421	0.378804	0.049157
52	C	0.593614	0.407931	0
53	S	0.591426	0.444701	0.910765
54	C	0.513758	0.439722	0.686558
55	C	0.493588	0.456392	0.623773
56	C	0.482184	0.474499	0.752928
57	C	0.46193	0.491159	0.689274
58	C	0.450414	0.509266	0.817075
59	C	0.458652	0.511454	0.013765
60	C	0.479356	0.494613	0.078909
61	C	0.491182	0.476043	0.949075
62	S	0.447375	0.593944	0.052387
63	H	0.347672	0.5503	0.984012
64	H	0.368241	0.501402	0.08501
65	H	0.448061	0.544713	0.444759
66	H	0.483914	0.51582	0.555077
67	H	0.516178	0.480819	0.488577
68	H	0.536289	0.449339	0.26774
69	H	0.501009	0.368374	0.039168
70	H	0.555138	0.3529	0.108289
71	H	0.522248	0.425714	0.583443
72	H	0.486859	0.455071	0.472683
73	H	0.454875	0.490351	0.538918
74	H	0.434866	0.521932	0.759659
75	C	0.407758	0.815671	0
76	C	0.443114	0.820568	0.012013
77	C	0.469408	0.857627	0.066319
78	C	0.4528	0.879172	0.092567
79	C	0.470152	0.918255	0.148093
80	C	0.468909	0.926294	0.341507
81	C	0.485332	0.962821	0.404115
82	C	0.503454	0.992101	0.274972
83	C	0.519913	0.028702	0.338493
84	C	0.538069	0.058091	0.210738
85	C	0.540539	0.052112	0.014256
86	C	0.558801	0.081362	0.879969
87	C	0.577391	0.120445	0.936662
88	C	0.612735	0.14199	0.011938
89	C	0.620927	0.17905	0.049157
90	C	0.591465	0.183946	0
91	S	0.554559	0.145243	0.910765
92	C	0.560048	0.073323	0.686558
93	C	0.543437	0.036796	0.623773
94	C	0.525329	0.007517	0.752928
95	C	0.508728	0.970916	0.689274
96	C	0.49062	0.941526	0.817075
97	C	0.488371	0.947505	0.013765
98	C	0.50515	0.984731	0.078909
99	C	0.523721	0.014887	0.949075
100	S	0.405616	0.854375	0.052387
101	H	0.450067	0.799067	0.984012
102	H	0.499035	0.868014	0.08501
103	H	0.455043	0.903973	0.444759
104	H	0.483828	0.968168	0.555077
105	H	0.518769	0.034881	0.488577
106	H	0.55025	0.086065	0.26774
107	H	0.631767	0.131603	0.039168
108	H	0.646963	0.200551	0.108289
109	H	0.57406	0.095645	0.583443
110	H	0.544806	0.031449	0.472683
111	H	0.509584	0.964737	0.538918
112	H	0.478001	0.913552	0.759659
113	C	0.185276	0.591686	0
114	C	0.180137	0.621812	0.012013
115	C	0.14276	0.61101	0.066319
116	C	0.121233	0.573164	0.092567
117	C	0.081881	0.551501	0.148093
118	C	0.073817	0.542281	0.341507
119	C	0.037037	0.522239	0.404115
120	C	0.007524	0.511079	0.274972
121	C	0.97067	0.490998	0.338493
122	C	0.941046	0.479764	0.210738
123	C	0.947034	0.48815	0.014256
124	C	0.91755	0.477158	0.879969
125	C	0.87819	0.45672	0.936662
126	C	0.856335	0.470291	0.011938
127	C	0.819073	0.441572	0.049157
128	C	0.814342	0.407548	0
129	S	0.853435	0.409481	0.910765
130	C	0.925614	0.486381	0.686558
131	C	0.962395	0.506238	0.623773
132	C	0.991908	0.517411	0.752928
133	C	0.028763	0.537351	0.689274
134	C	0.058386	0.548633	0.817075
135	C	0.052397	0.540467	0.013765
136	C	0.014914	0.520082	0.078909
137	C	0.984518	0.508496	0.949075
138	S	0.146429	0.551107	0.052387
139	H	0.201682	0.650059	0.984012
140	H	0.132145	0.63001	0.08501
141	H	0.096317	0.55074	0.444759
142	H	0.031678	0.515437	0.555077
143	H	0.964473	0.483726	0.488577
144	H	0.912882	0.464021	0.26774
145	H	0.866644	0.499448	0.039168
146	H	0.79732	0.445975	0.108289
147	H	0.903113	0.478067	0.583443
148	H	0.967755	0.512906	0.472683
149	H	0.034961	0.544338	0.538918
150	H	0.086553	0.563942	0.759659
