data_C60H24N12O6S9_2023-05-30_09:14:52
#******************************************
#
# CIF file created by Zeo++
# Zeo++ is an open source package to
# analyze microporous materials
#
#*******************************************

_cell_length_a		37.019   
_cell_length_b		37.3176   
_cell_length_c		7   
_cell_angle_alpha		90   
_cell_angle_beta		90   
_cell_angle_gamma		119.651   

_symmetry_space_group_name_H-M		'P1'
_symmetry_Int_Tables_number		1
_symmetry_cell_setting		Monoclinic

loop_
_symmetry_equiv_pos_as_xyz
'+x,+y,+z'

loop_
_atom_site_label
_atom_site_type_symbol
_atom_site_fract_x
_atom_site_fract_y
_atom_site_fract_z
1	C	0.375184	0.675392	0.999995
2	O	0.411879	0.681808	0.999991
3	C	0.342089	0.632516	0.999998
4	C	0.348597	0.600913	0
5	N	0.389672	0.608303	0
6	C	0.299654	0.624906	3e-06
7	O	0.269907	0.587951	5e-06
8	C	0.289389	0.65788	6e-06
9	C	0.25034	0.649923	5e-06
10	N	0.218137	0.607877	0
11	C	0.324081	0.700413	4e-06
12	O	0.315919	0.728928	7e-06
13	C	0.367196	0.709934	0.999999
14	C	0.397776	0.748737	0.999998
15	N	0.391545	0.783181	0
16	H	0.323257	0.570147	1e-06
17	H	0.242051	0.673541	8e-06
18	H	0.428775	0.754277	0.999997
19	C	0.624816	0.324608	0.999995
20	O	0.588121	0.318192	0.999991
21	C	0.657911	0.367484	0.999998
22	C	0.651403	0.399087	0
23	N	0.610328	0.391697	0
24	C	0.700346	0.375094	3e-06
25	O	0.730093	0.412049	5e-06
26	C	0.710611	0.34212	6e-06
27	C	0.74966	0.350077	5e-06
28	N	0.781863	0.392123	0
29	C	0.675919	0.299587	4e-06
30	O	0.684081	0.271072	7e-06
31	C	0.632804	0.290066	0.999999
32	C	0.602224	0.251263	0.999998
33	N	0.608455	0.216819	0
34	H	0.676743	0.429853	1e-06
35	H	0.757949	0.326459	8e-06
36	H	0.571225	0.245723	0.999997
37	C	0.414801	0.583636	0
38	C	0.418261	0.580226	0.192651
39	C	0.440237	0.558651	0.233976
40	C	0.452956	0.546177	0.072446
41	C	0.476131	0.523427	0.053406
42	C	0.486778	0.512976	0.876291
43	C	0.508915	0.491247	0.855354
44	C	0.523425	0.477005	0.00835
45	C	0.546379	0.454474	0.972609
46	C	0.556754	0.444305	0.79724
47	C	0.57912	0.422348	0.812772
48	C	0.585199	0.416364	0
49	S	0.564794	0.436379	0.153462
50	C	0.51381	0.486444	0.193278
51	N	0.523489	0.476945	0.364079
52	S	0.505443	0.494657	0.532106
53	N	0.483975	0.515731	0.400892
54	C	0.489761	0.510049	0.215929
55	S	0.43715	0.561708	0.87064
56	H	0.405988	0.592267	0.299778
57	H	0.446113	0.552871	0.379062
58	H	0.477813	0.521775	0.743498
59	H	0.514689	0.485579	0.708731
60	H	0.548845	0.452083	0.660387
61	H	0.58985	0.411825	0.692718
62	C	0.416149	0.832516	0
63	C	0.419549	0.839322	0.192651
64	C	0.441068	0.88247	0.233976
65	C	0.45351	0.907429	0.072446
66	C	0.4762	0.952929	0.053406
67	C	0.486625	0.973832	0.876291
68	C	0.508297	0.017291	0.855354
69	C	0.522502	0.045777	0.00835
70	C	0.544974	0.09084	0.972609
71	C	0.555117	0.111195	0.79724
72	C	0.577016	0.155107	0.812772
73	C	0.582985	0.167059	0
74	S	0.563022	0.127013	0.153462
75	C	0.513088	0.0269	0.193278
76	N	0.522562	0.0459	0.364079
77	S	0.504896	0.010473	0.532106
78	N	0.483877	0.968326	0.400892
79	C	0.489544	0.979687	0.215929
80	S	0.43802	0.876383	0.87064
81	H	0.40754	0.815234	0.299778
82	H	0.446833	0.894018	0.379062
83	H	0.477848	0.956232	0.743498
84	H	0.51395	0.028628	0.708731
85	H	0.547359	0.095654	0.660387
86	H	0.587512	0.176163	0.692718
87	C	0.168405	0.583209	0
88	C	0.161544	0.579813	0.192651
89	C	0.118049	0.55824	0.233976
90	C	0.092889	0.545754	0.072446
91	C	0.047022	0.523004	0.053406
92	C	0.025951	0.512553	0.876291
93	C	0.982142	0.490823	0.855354
94	C	0.953428	0.476579	0.00835
95	C	0.908002	0.454046	0.972609
96	C	0.887484	0.443861	0.79724
97	C	0.843218	0.421906	0.812772
98	C	0.83117	0.415938	0
99	S	0.871538	0.435969	0.153462
100	C	0.972457	0.486017	0.193278
101	N	0.953304	0.476516	0.364079
102	S	0.989016	0.494231	0.532106
103	N	0.031502	0.515305	0.400892
104	C	0.020049	0.509624	0.215929
105	S	0.124185	0.56127	0.87064
106	H	0.185826	0.59186	0.299778
107	H	0.106407	0.552471	0.379062
108	H	0.043693	0.521353	0.743498
109	H	0.970715	0.485154	0.708731
110	H	0.90315	0.451625	0.660387
111	H	0.821992	0.411373	0.692718
