data_C84H36N6O6S18_2023-05-13_06:57:36
#******************************************
#
# CIF file created by Zeo++
# Zeo++ is an open source package to
# analyze microporous materials
#
#*******************************************

_cell_length_a		51.0379   
_cell_length_b		51.3364   
_cell_length_c		7   
_cell_angle_alpha		90   
_cell_angle_beta		90   
_cell_angle_gamma		119.746   

_symmetry_space_group_name_H-M		'P1'
_symmetry_Int_Tables_number		1
_symmetry_cell_setting		Monoclinic

loop_
_symmetry_equiv_pos_as_xyz
'+x,+y,+z'

loop_
_atom_site_label
_atom_site_type_symbol
_atom_site_fract_x
_atom_site_fract_y
_atom_site_fract_z
1	C	0.363701	0.673015	0.999995
2	O	0.390326	0.677684	0.999991
3	C	0.339636	0.641818	0.999998
4	C	0.344312	0.618823	0
5	N	0.374115	0.624201	0
6	C	0.308846	0.636281	3e-06
7	O	0.287219	0.609392	5e-06
8	C	0.301447	0.660273	6e-06
9	C	0.273113	0.654483	5e-06
10	N	0.249696	0.62389	0
11	C	0.32667	0.691221	4e-06
12	O	0.32079	0.711969	7e-06
13	C	0.357956	0.698149	0.999999
14	C	0.380191	0.726382	0.999998
15	N	0.37572	0.751444	0
16	H	0.32589	0.596438	1e-06
17	H	0.267134	0.671668	8e-06
18	H	0.402683	0.730413	0.999997
19	C	0.636299	0.326985	0.999995
20	O	0.609674	0.322316	0.999991
21	C	0.660364	0.358182	0.999998
22	C	0.655688	0.381177	0
23	N	0.625885	0.375799	0
24	C	0.691154	0.363719	3e-06
25	O	0.712781	0.390608	5e-06
26	C	0.698553	0.339727	6e-06
27	C	0.726887	0.345517	5e-06
28	N	0.750304	0.37611	0
29	C	0.67333	0.308779	4e-06
30	O	0.67921	0.288031	7e-06
31	C	0.642044	0.301851	0.999999
32	C	0.619809	0.273618	0.999998
33	N	0.62428	0.248556	0
34	H	0.67411	0.403562	1e-06
35	H	0.732866	0.328332	8e-06
36	H	0.597317	0.269587	0.999997
37	C	0.607693	0.393748	0
38	C	0.61581	0.385739	0.166924
39	S	0.603992	0.397399	0.360589
40	C	0.587841	0.413334	0.220479
41	C	0.572744	0.428229	0.304118
42	C	0.56883	0.43209	0.495372
43	C	0.55278	0.447926	0.525692
44	C	0.544524	0.456072	0.357481
45	C	0.528036	0.472339	0.339343
46	C	0.517758	0.48248	0.489201
47	C	0.502401	0.497632	0.42343
48	C	0.501243	0.498773	0.229722
49	C	0.485888	0.513924	0.163933
50	C	0.475621	0.524054	0.313848
51	C	0.459116	0.540338	0.301342
52	C	0.448654	0.550662	0.448788
53	C	0.43328	0.565831	0.383389
54	C	0.432083	0.567009	0.186408
55	C	0.418126	0.580779	0.075499
56	C	0.403407	0.595302	0.146779
57	C	0.392307	0.606252	0
58	C	0.398426	0.600212	0.820173
59	S	0.417832	0.581065	0.828998
60	S	0.449859	0.549469	0.085322
61	S	0.484649	0.515147	0.532888
62	S	0.518996	0.481257	0.120448
63	S	0.556658	0.444101	0.165316
64	C	0.59174	0.409488	0.028462
65	H	0.628011	0.373701	0.185656
66	H	0.577012	0.424015	0.611062
67	H	0.547697	0.452941	0.666584
68	H	0.520826	0.479453	0.638918
69	H	0.482823	0.516948	0.014092
70	H	0.451698	0.54766	0.598761
71	H	0.423619	0.575364	0.479268
72	H	0.40073	0.597945	0.297733
73	H	0.392579	0.60598	0.684305
74	H	0.583498	0.417619	0.91345
75	C	0.605738	0.212349	0
76	C	0.613731	0.228366	0.166924
77	S	0.602094	0.205047	0.360589
78	C	0.586189	0.173176	0.220479
79	C	0.571322	0.143387	0.304118
80	C	0.567469	0.135665	0.495372
81	C	0.551662	0.103993	0.525692
82	C	0.543531	0.087701	0.357481
83	C	0.527295	0.055168	0.339343
84	C	0.517173	0.034886	0.489201
85	C	0.50205	0.004583	0.42343
86	C	0.50091	0.002299	0.229722
87	C	0.485789	0.971998	0.163933
88	C	0.475677	0.951738	0.313848
89	C	0.459424	0.91917	0.301342
90	C	0.449119	0.898524	0.448788
91	C	0.433979	0.868187	0.383389
92	C	0.432804	0.865829	0.186408
93	C	0.41906	0.838288	0.075499
94	C	0.404563	0.809242	0.146779
95	C	0.393634	0.787341	0
96	C	0.399663	0.799418	0.820173
97	S	0.418774	0.837711	0.828998
98	S	0.450311	0.900906	0.085322
99	S	0.484567	0.969553	0.532888
100	S	0.518394	0.03733	0.120448
101	S	0.55548	0.111644	0.165316
102	C	0.590028	0.18087	0.028462
103	H	0.625748	0.252443	0.185656
104	H	0.575528	0.151812	0.611062
105	H	0.546657	0.093964	0.666584
106	H	0.520194	0.040939	0.638918
107	H	0.48277	0.96595	0.014092
108	H	0.452116	0.904529	0.598761
109	H	0.424464	0.849121	0.479268
110	H	0.401925	0.803958	0.297733
111	H	0.393906	0.787882	0.684305
112	H	0.581912	0.164607	0.91345
113	C	0.786101	0.393438	0
114	C	0.76999	0.38543	0.166924
115	S	0.793446	0.397089	0.360589
116	C	0.825502	0.413024	0.220479
117	C	0.855465	0.427919	0.304118
118	C	0.863233	0.431781	0.495372
119	C	0.89509	0.447616	0.525692
120	C	0.911476	0.455762	0.357481
121	C	0.9442	0.472028	0.339343
122	C	0.9646	0.482169	0.489201
123	C	0.99508	0.49732	0.42343
124	C	0.997377	0.498463	0.229722
125	C	0.027855	0.513613	0.163933
126	C	0.048233	0.523743	0.313848
127	C	0.080991	0.540026	0.301342
128	C	0.101758	0.550349	0.448788
129	C	0.132272	0.565517	0.383389
130	C	0.134644	0.566698	0.186408
131	C	0.162346	0.580468	0.075499
132	C	0.191561	0.594991	0.146779
133	C	0.21359	0.605942	0
134	C	0.201443	0.599905	0.820173
135	S	0.162926	0.580758	0.828998
136	S	0.099362	0.54916	0.085322
137	S	0.030315	0.514835	0.532888
138	S	0.962142	0.480948	0.120448
139	S	0.887394	0.44379	0.165316
140	C	0.817764	0.409177	0.028462
141	H	0.745773	0.373391	0.185656
142	H	0.846991	0.423708	0.611062
143	H	0.905177	0.452631	0.666584
144	H	0.958511	0.479143	0.638918
145	H	0.033938	0.516637	0.014092
146	H	0.095718	0.547346	0.598761
147	H	0.151449	0.575049	0.479268
148	H	0.196876	0.597631	0.297733
149	H	0.213046	0.605674	0.684305
150	H	0.834122	0.417309	0.91345
