data_C114H54N6O6S12_2023-05-12_04:10:16
#******************************************
#
# CIF file created by Zeo++
# Zeo++ is an open source package to
# analyze microporous materials
#
#*******************************************

_cell_length_a		52.9767   
_cell_length_b		53.2751   
_cell_length_c		7   
_cell_angle_alpha		90   
_cell_angle_beta		90   
_cell_angle_gamma		119.755   

_symmetry_space_group_name_H-M		'P1'
_symmetry_Int_Tables_number		1
_symmetry_cell_setting		Monoclinic

loop_
_symmetry_equiv_pos_as_xyz
'+x,+y,+z'

loop_
_atom_site_label
_atom_site_type_symbol
_atom_site_fract_x
_atom_site_fract_y
_atom_site_fract_z
1	C	0.362591	0.672785	0.999995
2	O	0.388242	0.677284	0.999991
3	C	0.339401	0.64272	0.999998
4	C	0.343902	0.62056	0
5	N	0.372615	0.625742	0
6	C	0.309737	0.637384	3e-06
7	O	0.288896	0.611471	5e-06
8	C	0.302613	0.660505	6e-06
9	C	0.275314	0.654926	5e-06
10	N	0.25275	0.625443	0
11	C	0.326918	0.69033	4e-06
12	O	0.321257	0.710324	7e-06
13	C	0.35706	0.697006	0.999999
14	C	0.378487	0.724214	0.999998
15	N	0.374184	0.748366	0
16	H	0.32615	0.598987	1e-06
17	H	0.269558	0.671487	8e-06
18	H	0.400156	0.728099	0.999997
19	C	0.637409	0.327215	0.999995
20	O	0.611758	0.322716	0.999991
21	C	0.660599	0.35728	0.999998
22	C	0.656098	0.37944	0
23	N	0.627385	0.374258	0
24	C	0.690263	0.362616	3e-06
25	O	0.711104	0.388529	5e-06
26	C	0.697387	0.339495	6e-06
27	C	0.724686	0.345074	5e-06
28	N	0.74725	0.374557	0
29	C	0.673082	0.30967	4e-06
30	O	0.678743	0.289676	7e-06
31	C	0.64294	0.302994	0.999999
32	C	0.621513	0.275786	0.999998
33	N	0.625816	0.251634	0
34	H	0.67385	0.401013	1e-06
35	H	0.730442	0.328513	8e-06
36	H	0.599844	0.271901	0.999997
37	C	0.390138	0.608445	0
38	C	0.406763	0.595688	0.967799
39	C	0.38968	0.564863	0.97742
40	C	0.401697	0.54336	0.94739
41	C	0.385108	0.513644	0.955918
42	C	0.401977	0.499915	0.922336
43	C	0.430887	0.519628	0.889944
44	C	0.454903	0.514173	0.849802
45	C	0.462706	0.514343	0.658257
46	C	0.485023	0.508903	0.610062
47	C	0.499983	0.50311	0.752118
48	C	0.522324	0.497616	0.703006
49	C	0.537366	0.491804	0.843696
50	C	0.530703	0.49125	0.039238
51	C	0.545566	0.48541	0.186399
52	C	0.569621	0.480034	0.145898
53	C	0.598692	0.499827	0.120521
54	C	0.615519	0.48619	0.082196
55	C	0.598731	0.456459	0.08011
56	C	0.610627	0.435048	0.041145
57	C	0.639531	0.444155	0.005204
58	S	0.645556	0.41572	0.968274
59	C	0.609862	0.391555	0
60	C	0.593303	0.404216	0.038034
61	S	0.562991	0.445285	0.12528
62	C	0.537754	0.48519	0.377904
63	C	0.515422	0.490612	0.426159
64	C	0.500466	0.496435	0.284176
65	C	0.478146	0.501967	0.333281
66	C	0.463128	0.507821	0.192608
67	C	0.469755	0.508328	0.997027
68	C	0.492499	0.50276	0.946611
69	C	0.507947	0.496795	0.089682
70	S	0.437335	0.554411	0.899414
71	C	0.360884	0.555864	0.016571
72	S	0.354675	0.584385	0.041399
73	H	0.42988	0.607731	0.93886
74	H	0.36198	0.501907	0.984036
75	H	0.39332	0.476724	0.922109
76	H	0.451316	0.518714	0.545156
77	H	0.490577	0.509199	0.460128
78	H	0.528328	0.497739	0.55421
79	H	0.554518	0.487573	0.797496
80	H	0.607472	0.523007	0.128249
81	H	0.638743	0.497997	0.057506
82	H	0.657675	0.46596	0.998309
83	H	0.570061	0.392096	0.062235
84	H	0.549134	0.480787	0.490873
85	H	0.50985	0.490277	0.57607
86	H	0.472151	0.501857	0.482072
87	H	0.446028	0.512128	0.238852
88	H	0.342918	0.534092	0.032182
89	C	0.391449	0.78296	0
90	C	0.404166	0.812146	0.967799
91	C	0.435172	0.825874	0.97742
92	C	0.456684	0.859191	0.94739
93	C	0.486576	0.872306	0.955918
94	C	0.500265	0.9027	0.922336
95	C	0.480347	0.911762	0.889944
96	C	0.485702	0.941014	0.849802
97	C	0.485492	0.948584	0.658257
98	C	0.49084	0.976135	0.610062
99	C	0.496578	0.996739	0.752118
100	C	0.501979	0.024368	0.703006
101	C	0.507735	0.045072	0.843696
102	C	0.508324	0.039013	0.039238
103	C	0.51411	0.059569	0.186399
104	C	0.519384	0.08878	0.145898
105	C	0.499386	0.097921	0.120521
106	C	0.512983	0.128183	0.082196
107	C	0.542891	0.141115	0.08011
108	C	0.564311	0.174221	0.041145
109	C	0.555034	0.19383	0.005204
110	S	0.583528	0.228102	0.968274
111	C	0.607946	0.216741	0
112	C	0.595327	0.187717	0.038034
113	S	0.554276	0.116781	0.12528
114	C	0.514369	0.052038	0.377904
115	C	0.50904	0.024491	0.426159
116	C	0.503272	0.003861	0.284176
117	C	0.497832	0.976215	0.333281
118	C	0.492033	0.955492	0.192608
119	C	0.491492	0.961562	0.997027
120	C	0.496966	0.989663	0.946611
121	C	0.502874	0.010923	0.089682
122	S	0.445423	0.883547	0.899414
123	C	0.444341	0.806264	0.016571
124	S	0.41576	0.771724	0.041399
125	H	0.39197	0.823093	0.93886
126	H	0.498464	0.861042	0.984036
127	H	0.523572	0.91719	0.922109
128	H	0.481164	0.932936	0.545156
129	H	0.490516	0.98135	0.460128
130	H	0.501827	0.030201	0.55421
131	H	0.511896	0.066296	0.797496
132	H	0.476089	0.083565	0.128249
133	H	0.501025	0.139472	0.057506
134	H	0.533069	0.190131	0.998309
135	H	0.607599	0.176722	0.062235
136	H	0.51873	0.067709	0.490873
137	H	0.509403	0.019297	0.57607
138	H	0.497972	0.970378	0.482072
139	H	0.487797	0.934244	0.238852
140	H	0.46627	0.810107	0.032182
141	C	0.217961	0.608146	0
142	C	0.18862	0.591718	0.967799
143	C	0.174697	0.608815	0.97742
144	C	0.141168	0.597001	0.94739
145	C	0.127865	0.613603	0.955918
146	C	0.097306	0.596936	0.922336
147	C	0.088314	0.568162	0.889944
148	C	0.058943	0.544365	0.849802
149	C	0.05135	0.536625	0.658257
150	C	0.023685	0.514514	0.610062
151	C	0.002987	0.499703	0.752118
152	C	0.975245	0.477568	0.703006
153	C	0.954447	0.462676	0.843696
154	C	0.960522	0.469288	0.039238
155	C	0.939872	0.454573	0.186399
156	C	0.910543	0.430738	0.145898
157	C	0.901471	0.401804	0.120521
158	C	0.871046	0.385178	0.082196
159	C	0.857927	0.401978	0.08011
160	C	0.82461	0.390283	0.041145
161	C	0.804984	0.361567	0.005204
162	S	0.770464	0.355729	0.968274
163	C	0.781741	0.391256	0
164	C	0.810919	0.407619	0.038034
165	S	0.882282	0.437486	0.12528
166	C	0.947426	0.462324	0.377904
167	C	0.975087	0.484449	0.426159
168	C	0.99581	0.499256	0.284176
169	C	0.023571	0.52137	0.333281
170	C	0.044387	0.536238	0.192608
171	C	0.038301	0.529662	0.997027
172	C	0.010084	0.507129	0.946611
173	C	0.988727	0.491834	0.089682
174	S	0.11679	0.561594	0.899414
175	C	0.194324	0.637424	0.016571
176	S	0.229114	0.643443	0.041399
177	H	0.177698	0.568728	0.93886
178	H	0.139105	0.636602	0.984036
179	H	0.082656	0.605638	0.922109
180	H	0.067069	0.547902	0.545156
181	H	0.018455	0.509003	0.460128
182	H	0.969394	0.471612	0.55421
183	H	0.933135	0.445683	0.797496
184	H	0.915988	0.39298	0.128249
185	H	0.859781	0.362083	0.057506
186	H	0.808804	0.343461	0.998309
187	H	0.821888	0.430734	0.062235
188	H	0.931684	0.451057	0.490873
189	H	0.980295	0.489978	0.57607
190	H	0.029426	0.527317	0.482072
191	H	0.065724	0.553179	0.238852
192	H	0.19036	0.655352	0.032182
