data_C66H30N6O6S12_2023-05-11_21:30:15
#******************************************
#
# CIF file created by Zeo++
# Zeo++ is an open source package to
# analyze microporous materials
#
#*******************************************

_cell_length_a		38.213   
_cell_length_b		38.5116   
_cell_length_c		7   
_cell_angle_alpha		90   
_cell_angle_beta		90   
_cell_angle_gamma		119.661   

_symmetry_space_group_name_H-M		'P1'
_symmetry_Int_Tables_number		1
_symmetry_cell_setting		Monoclinic

loop_
_symmetry_equiv_pos_as_xyz
'+x,+y,+z'

loop_
_atom_site_label
_atom_site_type_symbol
_atom_site_fract_x
_atom_site_fract_y
_atom_site_fract_z
1	C	0.373879	0.675122	0.999995
2	O	0.409428	0.68134	0.999991
3	C	0.341808	0.633571	0.999998
4	C	0.348106	0.602945	0
5	N	0.387899	0.610107	0
6	C	0.300697	0.626196	3e-06
7	O	0.271872	0.590383	5e-06
8	C	0.29076	0.658151	6e-06
9	C	0.252929	0.65044	5e-06
10	N	0.221724	0.609693	0
11	C	0.324377	0.69937	4e-06
12	O	0.316476	0.727004	7e-06
13	C	0.366147	0.708597	0.999999
14	C	0.39578	0.746201	0.999998
15	N	0.389751	0.779581	0
16	H	0.323552	0.573129	1e-06
17	H	0.244905	0.673328	8e-06
18	H	0.425812	0.75157	0.999997
19	C	0.626121	0.324878	0.999995
20	O	0.590572	0.31866	0.999991
21	C	0.658192	0.366429	0.999998
22	C	0.651894	0.397055	0
23	N	0.612101	0.389893	0
24	C	0.699303	0.373804	3e-06
25	O	0.728128	0.409617	5e-06
26	C	0.70924	0.341849	6e-06
27	C	0.747071	0.34956	5e-06
28	N	0.778276	0.390307	0
29	C	0.675623	0.30063	4e-06
30	O	0.683524	0.272996	7e-06
31	C	0.633853	0.291403	0.999999
32	C	0.60422	0.253799	0.999998
33	N	0.610249	0.220419	0
34	H	0.676448	0.426871	1e-06
35	H	0.755095	0.326672	8e-06
36	H	0.574188	0.24843	0.999997
37	C	0.412237	0.586201	0
38	C	0.424954	0.573716	0.844676
39	S	0.449918	0.549197	0.913996
40	C	0.443512	0.555482	0.151219
41	C	0.459665	0.539614	0.317763
42	C	0.45451	0.544673	0.508177
43	S	0.475405	0.524148	0.65301
44	C	0.491981	0.507872	0.462814
45	C	0.513959	0.486287	0.484573
46	C	0.528259	0.472242	0.338865
47	C	0.548781	0.452087	0.406036
48	C	0.568333	0.432882	0.275434
49	C	0.567868	0.433339	0.078292
50	C	0.587763	0.413799	0
51	C	0.602811	0.39902	0.135682
52	S	0.592739	0.408912	0.361119
53	C	0.549582	0.4513	0.602402
54	S	0.525936	0.474526	0.703078
55	C	0.481232	0.518433	0.292362
56	C	0.422697	0.575925	0.177175
57	H	0.420972	0.57763	0.694814
58	H	0.43955	0.559364	0.572115
59	H	0.524141	0.476286	0.189237
60	H	0.55405	0.44691	0.994316
61	H	0.619109	0.383012	0.114965
62	H	0.562831	0.438289	0.693907
63	H	0.488541	0.511259	0.153803
64	H	0.415307	0.58318	0.315324
65	C	0.413597	0.827392	0
66	C	0.42605	0.852367	0.844676
67	S	0.450508	0.901406	0.913996
68	C	0.444238	0.888829	0.151219
69	C	0.460066	0.920563	0.317763
70	C	0.45502	0.910439	0.508177
71	S	0.475494	0.951489	0.65301
72	C	0.491728	0.984045	0.462814
73	C	0.513258	0.027217	0.484573
74	C	0.527269	0.055309	0.338865
75	C	0.547373	0.09562	0.406036
76	C	0.566529	0.134029	0.275434
77	C	0.566074	0.133116	0.078292
78	C	0.585564	0.172196	0
79	C	0.600306	0.201755	0.135682
80	S	0.590438	0.18197	0.361119
81	C	0.548157	0.097194	0.602402
82	S	0.52499	0.050742	0.703078
83	C	0.481194	0.962927	0.292362
84	C	0.423847	0.847941	0.177175
85	H	0.422146	0.844542	0.694814
86	H	0.440366	0.881055	0.572115
87	H	0.523235	0.04722	0.189237
88	H	0.552536	0.105972	0.994316
89	H	0.616273	0.233771	0.114965
90	H	0.561136	0.123218	0.693907
91	H	0.48835	0.97728	0.153803
92	H	0.41661	0.833428	0.315324
93	C	0.17354	0.585788	0
94	C	0.14837	0.573298	0.844676
95	S	0.098949	0.548778	0.913996
96	C	0.111624	0.555069	0.151219
97	C	0.079643	0.539204	0.317763
98	C	0.089845	0.544268	0.508177
99	S	0.048475	0.523744	0.65301
100	C	0.015665	0.507463	0.462814
101	C	0.972157	0.485877	0.484573
102	C	0.943846	0.47183	0.338865
103	C	0.903221	0.451674	0.406036
104	C	0.864513	0.432469	0.275434
105	C	0.865433	0.432926	0.078292
106	C	0.826048	0.413386	0
107	C	0.796258	0.398605	0.135682
108	S	0.816197	0.408498	0.361119
109	C	0.901635	0.450887	0.602402
110	S	0.948448	0.474113	0.703078
111	C	0.036948	0.518021	0.292362
112	C	0.152831	0.575515	0.177175
113	H	0.156256	0.577209	0.694814
114	H	0.119458	0.558961	0.572115
115	H	0.951998	0.475875	0.189237
116	H	0.892788	0.446499	0.994316
117	H	0.763992	0.382597	0.114965
118	H	0.875408	0.437874	0.693907
119	H	0.022483	0.510842	0.153803
120	H	0.167457	0.582773	0.315324
