data_C102H48N12O6S12_2023-05-15_01:35:54
#******************************************
#
# CIF file created by Zeo++
# Zeo++ is an open source package to
# analyze microporous materials
#
#*******************************************

_cell_length_a		43.4972   
_cell_length_b		43.7957   
_cell_length_c		7   
_cell_angle_alpha		90   
_cell_angle_beta		90   
_cell_angle_gamma		119.702   

_symmetry_space_group_name_H-M		'P1'
_symmetry_Int_Tables_number		1
_symmetry_cell_setting		Monoclinic

loop_
_symmetry_equiv_pos_as_xyz
'+x,+y,+z'

loop_
_atom_site_label
_atom_site_type_symbol
_atom_site_fract_x
_atom_site_fract_y
_atom_site_fract_z
1	C	0.368959	0.674105	0.999995
2	O	0.400194	0.679575	0.999991
3	C	0.340755	0.637553	0.999998
4	C	0.346265	0.61061	0
5	N	0.381229	0.616911	0
6	C	0.304633	0.631065	3e-06
7	O	0.279284	0.59956	5e-06
8	C	0.295926	0.659176	6e-06
9	C	0.262685	0.652392	5e-06
10	N	0.235241	0.616547	0
11	C	0.325489	0.695436	4e-06
12	O	0.318568	0.719746	7e-06
13	C	0.362192	0.703553	0.999999
14	C	0.388252	0.736633	0.999998
15	N	0.38298	0.765998	0
16	H	0.324672	0.584382	1e-06
17	H	0.255653	0.672527	8e-06
18	H	0.414639	0.741357	0.999997
19	C	0.631041	0.325895	0.999995
20	O	0.599806	0.320425	0.999991
21	C	0.659245	0.362447	0.999998
22	C	0.653735	0.38939	0
23	N	0.618771	0.383089	0
24	C	0.695367	0.368935	3e-06
25	O	0.720716	0.40044	5e-06
26	C	0.704074	0.340824	6e-06
27	C	0.737315	0.347608	5e-06
28	N	0.764759	0.383453	0
29	C	0.674511	0.304564	4e-06
30	O	0.681432	0.280254	7e-06
31	C	0.637808	0.296447	0.999999
32	C	0.611748	0.263367	0.999998
33	N	0.61702	0.234002	0
34	H	0.675328	0.415618	1e-06
35	H	0.744347	0.327473	8e-06
36	H	0.585361	0.258643	0.999997
37	C	0.597407	0.404119	0
38	C	0.576051	0.38104	0.137077
39	C	0.570808	0.399195	0.292001
40	C	0.588337	0.435402	0.267509
41	C	0.588969	0.461854	0.394728
42	C	0.607724	0.49807	0.37421
43	C	0.60198	0.51618	0.527284
44	C	0.578893	0.493368	0.661671
45	C	0.566292	0.501527	0.838191
46	C	0.537161	0.507712	0.841016
47	C	0.517884	0.505897	0.676119
48	C	0.489583	0.512119	0.685345
49	C	0.47949	0.520463	0.859771
50	C	0.450773	0.527131	0.875697
51	C	0.429064	0.525295	0.711189
52	C	0.398842	0.496722	0.642043
53	C	0.385339	0.505397	0.477684
54	C	0.405429	0.540378	0.425382
55	C	0.398718	0.557379	0.266118
56	C	0.366646	0.545899	0.17348
57	C	0.368858	0.568243	0.019172
58	C	0.402593	0.595881	0
59	S	0.431174	0.595429	0.162087
60	S	0.440399	0.562252	0.579755
61	C	0.442041	0.535218	0.052933
62	C	0.461993	0.53655	0.20799
63	N	0.489298	0.530334	0.197399
64	C	0.498586	0.522367	0.027342
65	C	0.527281	0.51596	0.01803
66	N	0.545417	0.517727	0.179274
67	C	0.572878	0.511714	0.17218
68	C	0.584301	0.503668	0.006778
69	S	0.564677	0.450564	0.60281
70	S	0.611051	0.446556	0.053679
71	H	0.564647	0.352773	0.128882
72	H	0.554749	0.385894	0.415707
73	H	0.625045	0.511459	0.254709
74	H	0.614235	0.544523	0.537586
75	H	0.524609	0.499528	0.537594
76	H	0.475558	0.510432	0.553512
77	H	0.387022	0.470755	0.705401
78	H	0.361923	0.486484	0.401198
79	H	0.342373	0.522492	0.214243
80	H	0.346837	0.563945	0.929047
81	H	0.420269	0.540418	0.069712
82	H	0.456545	0.542775	0.349787
83	H	0.585779	0.513705	0.308139
84	H	0.606677	0.499171	0.009229
85	C	0.5953	0.19158	0
86	C	0.618597	0.193375	0.137077
87	C	0.600402	0.170136	0.292001
88	C	0.563951	0.151504	0.267509
89	C	0.537393	0.125836	0.394728
90	C	0.500925	0.108408	0.37421
91	C	0.482779	0.084718	0.527284
92	C	0.505817	0.084533	0.661671
93	C	0.497702	0.063945	0.838191
94	C	0.491667	0.028951	0.841016
95	C	0.493605	0.011666	0.676119
96	C	0.487528	0.977457	0.685345
97	C	0.479212	0.959168	0.859771
98	C	0.47269	0.924104	0.875697
99	C	0.474663	0.904433	0.711189
100	C	0.503528	0.902908	0.642043
101	C	0.494899	0.880914	0.477684
102	C	0.459663	0.866036	0.425382
103	C	0.442637	0.842491	0.266118
104	C	0.454353	0.822143	0.17348
105	C	0.431909	0.802123	0.019172
106	C	0.403963	0.808057	0
107	S	0.404245	0.836807	0.162087
108	S	0.437495	0.87892	0.579755
109	C	0.464624	0.907419	0.052933
110	C	0.463167	0.925852	0.20799
111	N	0.469244	0.959068	0.197399
112	C	0.477187	0.976186	0.027342
113	C	0.483446	0.010968	0.01803
114	N	0.481564	0.027171	0.179274
115	C	0.487437	0.060341	0.17218
116	C	0.495445	0.07965	0.006778
117	S	0.548872	0.113004	0.60281
118	S	0.552618	0.162908	0.053679
119	H	0.647041	0.21018	0.128882
120	H	0.613851	0.167456	0.415707
121	H	0.487381	0.112252	0.254709
122	H	0.454253	0.06868	0.537586
123	H	0.499958	0.024655	0.537594
124	H	0.489305	0.965246	0.553512
125	H	0.529665	0.917014	0.705401
126	H	0.514026	0.876526	0.401198
127	H	0.477995	0.821374	0.214243
128	H	0.436355	0.78459	0.929047
129	H	0.459534	0.88069	0.069712
130	H	0.456952	0.914269	0.349787
131	H	0.485361	0.071136	0.308139
132	H	0.499825	0.106277	0.009229
133	C	0.806744	0.403756	0
134	C	0.804803	0.425041	0.137077
135	C	0.82824	0.430124	0.292001
136	C	0.847162	0.41255	0.267509
137	C	0.873089	0.411766	0.394728
138	C	0.890802	0.392977	0.37421
139	C	0.914692	0.398557	0.527284
140	C	0.91474	0.421555	0.661671
141	C	0.935456	0.433983	0.838191
142	C	0.970622	0.462792	0.841016
143	C	0.987962	0.481892	0.676119
144	C	0.022339	0.509879	0.685345
145	C	0.040749	0.519824	0.859771
146	C	0.075987	0.54822	0.875697
147	C	0.095723	0.569728	0.711189
148	C	0.097081	0.599825	0.642043
149	C	0.119212	0.613144	0.477684
150	C	0.134358	0.593041	0.425382
151	C	0.158095	0.599585	0.266118
152	C	0.178452	0.631413	0.17348
153	C	0.198683	0.629088	0.019172
154	C	0.192894	0.595517	0
155	S	0.164031	0.567219	0.162087
156	S	0.121556	0.558283	0.579755
157	C	0.092785	0.556819	0.052933
158	C	0.07429	0.537053	0.20799
159	N	0.040908	0.510053	0.197399
160	C	0.023677	0.500903	0.027342
161	C	0.988723	0.472527	0.01803
162	N	0.972469	0.454557	0.179274
163	C	0.939136	0.427401	0.17218
164	C	0.919704	0.416138	0.006778
165	S	0.885901	0.435887	0.60281
166	S	0.835782	0.389991	0.053679
167	H	0.787762	0.436503	0.128882
168	H	0.83085	0.446105	0.415707
169	H	0.887024	0.375745	0.254709
170	H	0.930963	0.386252	0.537586
171	H	0.974884	0.475271	0.537594
172	H	0.034587	0.523777	0.553512
173	H	0.082763	0.611686	0.705401
174	H	0.123501	0.636445	0.401198
175	H	0.179082	0.655589	0.214243
176	H	0.216258	0.65092	0.929047
177	H	0.119648	0.578347	0.069712
178	H	0.085954	0.542411	0.349787
179	H	0.928311	0.414614	0.308139
180	H	0.892948	0.394007	0.009229
