data_C72H36N6O6S6_2023-05-29_14:10:16
#******************************************
#
# CIF file created by Zeo++
# Zeo++ is an open source package to
# analyze microporous materials
#
#*******************************************

_cell_length_a		36.4293   
_cell_length_b		36.7279   
_cell_length_c		7   
_cell_angle_alpha		90   
_cell_angle_beta		90   
_cell_angle_gamma		119.645   

_symmetry_space_group_name_H-M		'P1'
_symmetry_Int_Tables_number		1
_symmetry_cell_setting		Monoclinic

loop_
_symmetry_equiv_pos_as_xyz
'+x,+y,+z'

loop_
_atom_site_label
_atom_site_type_symbol
_atom_site_fract_x
_atom_site_fract_y
_atom_site_fract_z
1	C	0.375861	0.675531	0.999995
2	O	0.413148	0.68205	0.999991
3	C	0.342235	0.63197	0.999998
4	C	0.348852	0.599861	0
5	N	0.39059	0.607369	0
6	C	0.299113	0.624238	3e-06
7	O	0.26889	0.586692	5e-06
8	C	0.288678	0.657739	6e-06
9	C	0.248998	0.649655	5e-06
10	N	0.216279	0.606936	0
11	C	0.323927	0.700953	4e-06
12	O	0.31563	0.729924	7e-06
13	C	0.367739	0.710627	0.999999
14	C	0.39881	0.75005	0.999998
15	N	0.392474	0.785045	0
16	H	0.323105	0.568603	1e-06
17	H	0.240573	0.673651	8e-06
18	H	0.43031	0.755679	0.999997
19	C	0.624139	0.324469	0.999995
20	O	0.586852	0.31795	0.999991
21	C	0.657765	0.36803	0.999998
22	C	0.651148	0.400139	0
23	N	0.60941	0.392631	0
24	C	0.700887	0.375762	3e-06
25	O	0.73111	0.413308	5e-06
26	C	0.711322	0.342261	6e-06
27	C	0.751002	0.350345	5e-06
28	N	0.783721	0.393064	0
29	C	0.676073	0.299047	4e-06
30	O	0.68437	0.270076	7e-06
31	C	0.632261	0.289373	0.999999
32	C	0.60119	0.24995	0.999998
33	N	0.607526	0.214955	0
34	H	0.676895	0.431397	1e-06
35	H	0.759427	0.326349	8e-06
36	H	0.56969	0.244321	0.999997
37	C	0.583871	0.417693	0
38	C	0.551751	0.379267	0.05622
39	S	0.509125	0.382637	0.136686
40	C	0.534018	0.435581	0.094744
41	C	0.512088	0.459029	0.138107
42	C	0.513502	0.472201	0.32744
43	C	0.493931	0.494973	0.377924
44	C	0.472901	0.504944	0.239278
45	C	0.47072	0.492544	0.04623
46	C	0.449345	0.50258	0.902984
47	C	0.428773	0.527378	0.944901
48	C	0.446694	0.570412	0.956132
49	C	0.416129	0.582307	0
50	C	0.376101	0.548914	0.020638
51	S	0.375366	0.50238	0.986371
52	C	0.447975	0.489452	0.713605
53	C	0.467252	0.466386	0.663435
54	C	0.488244	0.456377	0.802121
55	C	0.490675	0.469027	0.994902
56	C	0.574159	0.450346	0.021654
57	H	0.550935	0.349441	0.05472
58	H	0.529943	0.464598	0.436424
59	H	0.494933	0.504973	0.524881
60	H	0.457799	0.522705	0.28487
61	H	0.480053	0.591817	0.933996
62	H	0.347272	0.54923	0.053716
63	H	0.431707	0.497226	0.604436
64	H	0.465975	0.456113	0.51677
65	H	0.502807	0.43808	0.757103
66	H	0.595053	0.482947	0.985995
67	C	0.581649	0.164398	0
68	C	0.620482	0.170805	0.05622
69	S	0.6174	0.125329	0.136686
70	C	0.564033	0.097365	0.094744
71	C	0.540634	0.05241	0.138107
72	C	0.527391	0.04073	0.32744
73	C	0.504653	0.998777	0.377924
74	C	0.494786	0.968092	0.239278
75	C	0.507259	0.978248	0.04623
76	C	0.49733	0.947158	0.902984
77	C	0.472563	0.902203	0.944901
78	C	0.429202	0.877189	0.956132
79	C	0.41747	0.835169	0
80	C	0.451303	0.828763	0.020638
81	S	0.498058	0.874239	0.986371
82	C	0.510528	0.958838	0.713605
83	C	0.533563	0.000791	0.663435
84	C	0.543468	0.031476	0.802121
85	C	0.530743	0.02132	0.994902
86	C	0.548914	0.122379	0.021654
87	H	0.650451	0.199611	0.05472
88	H	0.534911	0.064528	0.436424
89	H	0.4946	0.989838	0.524881
90	H	0.477051	0.935531	0.28487
91	H	0.407461	0.888907	0.933996
92	H	0.451191	0.799956	0.053716
93	H	0.502833	0.935041	0.604436
94	H	0.543892	0.00973	0.51677
95	H	0.561746	0.064037	0.757103
96	H	0.516014	0.110661	0.985995
97	C	0.833824	0.41726	0
98	C	0.827111	0.449279	0.05622
99	S	0.872819	0.491385	0.136686
100	C	0.901292	0.466404	0.094744
101	C	0.946622	0.487911	0.138107
102	C	0.958451	0.48642	0.32744
103	C	0.00076	0.505601	0.377924
104	C	0.031657	0.526315	0.239278
105	C	0.021365	0.528559	0.04623
106	C	0.052669	0.549613	0.902984
107	C	0.098008	0.569769	0.944901
108	C	0.123447	0.55175	0.956132
109	C	0.165745	0.581874	0
110	C	0.17194	0.621673	0.020638
111	S	0.12592	0.622732	0.986371
112	C	0.040841	0.551061	0.713605
113	C	0.998529	0.532173	0.663435
114	C	0.967632	0.511497	0.802121
115	C	0.977926	0.509004	0.994902
116	C	0.87627	0.426625	0.021654
117	H	0.797957	0.450298	0.05472
118	H	0.934489	0.470225	0.436424
119	H	0.009811	0.50454	0.524881
120	H	0.064494	0.541114	0.28487
121	H	0.11183	0.518627	0.933996
122	H	0.20088	0.650165	0.053716
123	H	0.064803	0.567084	0.604436
124	H	0.989476	0.533508	0.51677
125	H	0.934791	0.497234	0.757103
126	H	0.888277	0.405743	0.985995
