data_C72H33N15O6S12_2023-05-11_11:24:44
#******************************************
#
# CIF file created by Zeo++
# Zeo++ is an open source package to
# analyze microporous materials
#
#*******************************************

_cell_length_a		46.4699   
_cell_length_b		46.7684   
_cell_length_c		7   
_cell_angle_alpha		90   
_cell_angle_beta		90   
_cell_angle_gamma		119.721   

_symmetry_space_group_name_H-M		'P1'
_symmetry_Int_Tables_number		1
_symmetry_cell_setting		Monoclinic

loop_
_symmetry_equiv_pos_as_xyz
'+x,+y,+z'

loop_
_atom_site_label
_atom_site_type_symbol
_atom_site_fract_x
_atom_site_fract_y
_atom_site_fract_z
1	C	0.366683	0.673634	0.999995
2	O	0.395922	0.678757	0.999991
3	C	0.34027	0.639398	0.999998
4	C	0.345418	0.614163	0
5	N	0.378147	0.620064	0
6	C	0.306456	0.633321	3e-06
7	O	0.282717	0.603814	5e-06
8	C	0.298316	0.65965	6e-06
9	C	0.2672	0.653297	5e-06
10	N	0.241498	0.619724	0
11	C	0.326001	0.693613	4e-06
12	O	0.319532	0.716381	7e-06
13	C	0.360359	0.701215	0.999999
14	C	0.384764	0.732198	0.999998
15	N	0.37984	0.759701	0
16	H	0.325197	0.589597	1e-06
17	H	0.260624	0.672156	8e-06
18	H	0.409465	0.736622	0.999997
19	C	0.633317	0.326366	0.999995
20	O	0.604078	0.321243	0.999991
21	C	0.65973	0.360602	0.999998
22	C	0.654582	0.385837	0
23	N	0.621853	0.379936	0
24	C	0.693544	0.366679	3e-06
25	O	0.717283	0.396186	5e-06
26	C	0.701684	0.34035	6e-06
27	C	0.7328	0.346703	5e-06
28	N	0.758502	0.380276	0
29	C	0.673999	0.306387	4e-06
30	O	0.680468	0.283619	7e-06
31	C	0.639641	0.298785	0.999999
32	C	0.615236	0.267802	0.999998
33	N	0.62016	0.240299	0
34	H	0.674803	0.410403	1e-06
35	H	0.739376	0.327844	8e-06
36	H	0.590535	0.263378	0.999997
37	C	0.601862	0.399632	0
38	C	0.61123	0.390407	0.163765
39	S	0.598771	0.402685	0.362079
40	C	0.580689	0.420496	0.227873
41	C	0.564475	0.436472	0.319292
42	N	0.562604	0.438316	0.506474
43	C	0.545803	0.454869	0.552587
44	C	0.534961	0.465551	0.399884
45	C	0.515541	0.484686	0.413388
46	C	0.506487	0.493608	0.580485
47	N	0.489863	0.509987	0.533006
48	C	0.488013	0.51181	0.337426
49	C	0.472066	0.527522	0.243623
50	C	0.468779	0.53076	0.049891
51	N	0.452106	0.547188	0.998268
52	C	0.442634	0.556523	0.152373
53	C	0.424609	0.574284	0.137444
54	C	0.415602	0.583158	0.968234
55	C	0.398138	0.600368	0
56	C	0.393935	0.604509	0.189765
57	S	0.411362	0.587337	0.331102
58	S	0.453432	0.545883	0.364904
59	C	0.503936	0.496119	0.260344
60	S	0.54605	0.454625	0.191637
61	C	0.584407	0.41683	0.034397
62	H	0.624682	0.377155	0.17803
63	H	0.542254	0.458367	0.701831
64	H	0.510259	0.489892	0.728854
65	H	0.48027	0.51944	0.627174
66	H	0.478141	0.521535	0.938131
67	H	0.421537	0.57731	0.828965
68	H	0.381608	0.616655	0.252984
69	H	0.506908	0.493191	0.109505
70	H	0.575042	0.426053	0.922659
71	C	0.599815	0.200565	0
72	C	0.609021	0.219021	0.163765
73	S	0.596769	0.194467	0.362079
74	C	0.578994	0.158838	0.227873
75	C	0.563051	0.126886	0.319292
76	N	0.561212	0.1232	0.506474
77	C	0.544693	0.090092	0.552587
78	C	0.534033	0.068727	0.399884
79	C	0.514938	0.030457	0.413388
80	C	0.506034	0.012614	0.580485
81	N	0.489689	0.979854	0.533006
82	C	0.48787	0.976209	0.337426
83	C	0.47219	0.944784	0.243623
84	C	0.468959	0.938308	0.049891
85	N	0.452565	0.905451	0.998268
86	C	0.44325	0.886783	0.152373
87	C	0.425525	0.851262	0.137444
88	C	0.416669	0.833513	0.968234
89	C	0.399495	0.799095	0
90	C	0.395363	0.790812	0.189765
91	S	0.412499	0.825156	0.331102
92	S	0.453867	0.908062	0.364904
93	C	0.503528	0.007589	0.260344
94	S	0.544936	0.090579	0.191637
95	C	0.582653	0.166169	0.034397
96	H	0.622246	0.245528	0.17803
97	H	0.541202	0.083097	0.701831
98	H	0.509743	0.020047	0.728854
99	H	0.480256	0.960949	0.627174
100	H	0.478165	0.956757	0.938131
101	H	0.422505	0.845208	0.828965
102	H	0.383242	0.766521	0.252984
103	H	0.50645	0.013446	0.109505
104	H	0.573449	0.147718	0.922659
105	C	0.797808	0.399292	0
106	C	0.779234	0.390062	0.163765
107	S	0.803945	0.402338	0.362079
108	C	0.839802	0.420155	0.227873
109	C	0.871959	0.436131	0.319292
110	N	0.87567	0.437974	0.506474
111	C	0.908989	0.454528	0.552587
112	C	0.930492	0.465212	0.399884
113	C	0.969007	0.484347	0.413388
114	C	0.986964	0.493268	0.580485
115	N	0.019934	0.509648	0.533006
116	C	0.023603	0.511471	0.337426
117	C	0.055229	0.527184	0.243623
118	C	0.061747	0.530422	0.049891
119	N	0.094814	0.54685	0.998268
120	C	0.113602	0.556184	0.152373
121	C	0.149351	0.573944	0.137444
122	C	0.167214	0.582819	0.968234
123	C	0.201852	0.600027	0
124	C	0.210188	0.604168	0.189765
125	S	0.175624	0.586996	0.331102
126	S	0.092186	0.545544	0.364904
127	C	0.992021	0.495781	0.260344
128	S	0.908499	0.454286	0.191637
129	C	0.832425	0.416492	0.034397
130	H	0.752557	0.376807	0.17803
131	H	0.916029	0.458026	0.701831
132	H	0.979484	0.489551	0.728854
133	H	0.03896	0.5191	0.627174
134	H	0.04318	0.521198	0.938131
135	H	0.155443	0.576971	0.828965
136	H	0.234635	0.616314	0.252984
137	H	0.986127	0.492853	0.109505
138	H	0.850994	0.425719	0.922659
