data_C72H36N6O6S6_2023-05-30_05:20:08
#******************************************
#
# CIF file created by Zeo++
# Zeo++ is an open source package to
# analyze microporous materials
#
#*******************************************

_cell_length_a		40.4371   
_cell_length_b		40.7356   
_cell_length_c		7   
_cell_angle_alpha		90   
_cell_angle_beta		90   
_cell_angle_gamma		119.68   

_symmetry_space_group_name_H-M		'P1'
_symmetry_Int_Tables_number		1
_symmetry_cell_setting		Monoclinic

loop_
_symmetry_equiv_pos_as_xyz
'+x,+y,+z'

loop_
_atom_site_label
_atom_site_type_symbol
_atom_site_fract_x
_atom_site_fract_y
_atom_site_fract_z
1	C	0.371652	0.674662	0.999995
2	O	0.405248	0.680542	0.999991
3	C	0.341331	0.635373	0.999998
4	C	0.347271	0.606412	0
5	N	0.384878	0.613185	0
6	C	0.302478	0.628399	3e-06
7	O	0.275226	0.594535	5e-06
8	C	0.293098	0.658615	6e-06
9	C	0.257346	0.651323	5e-06
10	N	0.227843	0.612794	0
11	C	0.324882	0.69759	4e-06
12	O	0.317425	0.72372	7e-06
13	C	0.364358	0.706315	0.999999
14	C	0.392374	0.741872	0.999998
15	N	0.386688	0.773436	0
16	H	0.324057	0.57822	1e-06
17	H	0.249771	0.672966	8e-06
18	H	0.420755	0.74695	0.999997
19	C	0.628348	0.325338	0.999995
20	O	0.594752	0.319458	0.999991
21	C	0.658669	0.364627	0.999998
22	C	0.652729	0.393588	0
23	N	0.615122	0.386815	0
24	C	0.697522	0.371601	3e-06
25	O	0.724774	0.405465	5e-06
26	C	0.706902	0.341385	6e-06
27	C	0.742654	0.348677	5e-06
28	N	0.772157	0.387206	0
29	C	0.675118	0.30241	4e-06
30	O	0.682575	0.27628	7e-06
31	C	0.635642	0.293685	0.999999
32	C	0.607626	0.258128	0.999998
33	N	0.613312	0.226564	0
34	H	0.675943	0.42178	1e-06
35	H	0.750229	0.327034	8e-06
36	H	0.579245	0.25305	0.999997
37	C	0.592131	0.40942	0
38	C	0.588003	0.413465	0.191036
39	C	0.56772	0.433403	0.22247
40	C	0.557001	0.443951	0.054795
41	C	0.535799	0.464796	0.030039
42	C	0.526959	0.473485	0.849873
43	C	0.50692	0.493186	0.830744
44	C	0.494967	0.50494	0.991613
45	C	0.474779	0.524787	0.974622
46	C	0.462615	0.536749	0.135147
47	C	0.441326	0.55768	0.119524
48	C	0.427613	0.571149	0.264144
49	C	0.408292	0.590149	0.195335
50	C	0.407869	0.59058	0
51	S	0.429941	0.568891	0.900027
52	C	0.471457	0.528059	0.315358
53	C	0.49149	0.508364	0.334733
54	C	0.503443	0.49661	0.173847
55	C	0.523632	0.476761	0.190603
56	S	0.572356	0.428869	0.860518
57	H	0.598709	0.402933	0.303256
58	H	0.561473	0.439535	0.364105
59	H	0.535372	0.46521	0.719028
60	H	0.50077	0.499231	0.687797
61	H	0.468733	0.530729	0.831338
62	H	0.431064	0.567743	0.414916
63	H	0.395645	0.602574	0.285514
64	H	0.462977	0.536399	0.445663
65	H	0.497637	0.502324	0.477653
66	H	0.529749	0.47075	0.333478
67	C	0.589968	0.180966	0
68	C	0.585933	0.172862	0.191036
69	C	0.566042	0.132982	0.22247
70	C	0.555519	0.111896	0.054795
71	C	0.534723	0.070205	0.030039
72	C	0.526056	0.052825	0.849873
73	C	0.506402	0.013423	0.830744
74	C	0.494676	0.989917	0.991613
75	C	0.474876	0.950221	0.974622
76	C	0.462942	0.9263	0.135147
77	C	0.442061	0.884438	0.119524
78	C	0.428624	0.857486	0.264144
79	C	0.409669	0.819491	0.195335
80	C	0.409239	0.818644	0
81	S	0.430876	0.862034	0.900027
82	C	0.471611	0.943683	0.315358
83	C	0.491259	0.983074	0.334733
84	C	0.502986	0.00658	0.173847
85	C	0.522787	0.046278	0.190603
86	S	0.570565	0.142074	0.860518
87	H	0.59644	0.19392	0.303256
88	H	0.559925	0.120708	0.364105
89	H	0.53431	0.069371	0.719028
90	H	0.500371	0.00133	0.687797
91	H	0.468948	0.938335	0.831338
92	H	0.432022	0.864286	0.414916
93	H	0.397274	0.794632	0.285514
94	H	0.463291	0.927005	0.445663
95	H	0.497285	0.995158	0.477653
96	H	0.528784	0.058303	0.333478
97	C	0.81731	0.409029	0
98	C	0.825473	0.413088	0.191036
99	C	0.865647	0.433029	0.22247
100	C	0.886889	0.443568	0.054795
101	C	0.928887	0.464413	0.030039
102	C	0.946394	0.473104	0.849873
103	C	0.986087	0.492806	0.830744
104	C	0.009766	0.504558	0.991613
105	C	0.049755	0.524406	0.974622
106	C	0.073852	0.536365	0.135147
107	C	0.116022	0.557296	0.119524
108	C	0.143172	0.570779	0.264144
109	C	0.181448	0.589775	0.195335
110	C	0.182301	0.59019	0
111	S	0.138591	0.568489	0.900027
112	C	0.056341	0.527672	0.315358
113	C	0.016659	0.507976	0.334733
114	C	0.99298	0.496224	0.173847
115	C	0.95299	0.476375	0.190603
116	S	0.856488	0.428471	0.860518
117	H	0.80426	0.402562	0.303256
118	H	0.878011	0.439171	0.364105
119	H	0.929726	0.464833	0.719028
120	H	0.998269	0.498853	0.687797
121	H	0.061728	0.53035	0.831338
122	H	0.136323	0.567386	0.414916
123	H	0.20649	0.602208	0.285514
124	H	0.073141	0.53601	0.445663
125	H	0.004487	0.501933	0.477653
126	H	0.940876	0.470361	0.333478
