data_C57H30N6O6S6_2023-05-11_18:58:57
#******************************************
#
# CIF file created by Zeo++
# Zeo++ is an open source package to
# analyze microporous materials
#
#*******************************************

_cell_length_a		34.9526   
_cell_length_b		35.2512   
_cell_length_c		7   
_cell_angle_alpha		90   
_cell_angle_beta		90   
_cell_angle_gamma		119.63   

_symmetry_space_group_name_H-M		'P1'
_symmetry_Int_Tables_number		1
_symmetry_cell_setting		Monoclinic

loop_
_symmetry_equiv_pos_as_xyz
'+x,+y,+z'

loop_
_atom_site_label
_atom_site_type_symbol
_atom_site_fract_x
_atom_site_fract_y
_atom_site_fract_z
1	C	0.377655	0.675901	0.999995
2	O	0.416516	0.682692	0.999991
3	C	0.342622	0.630522	0.999998
4	C	0.349528	0.597073	0
5	N	0.393028	0.604895	0
6	C	0.297681	0.622467	3e-06
7	O	0.266192	0.583354	5e-06
8	C	0.286794	0.657367	6e-06
9	C	0.24544	0.648945	5e-06
10	N	0.211352	0.604443	0
11	C	0.323519	0.702384	4e-06
12	O	0.314862	0.732564	7e-06
13	C	0.369179	0.712461	0.999999
14	C	0.40155	0.75353	0.999998
15	N	0.394936	0.789986	0
16	H	0.322704	0.56451	1e-06
17	H	0.236651	0.673942	8e-06
18	H	0.434379	0.759394	0.999997
19	C	0.622345	0.324099	0.999995
20	O	0.583484	0.317308	0.999991
21	C	0.657378	0.369478	0.999998
22	C	0.650472	0.402927	0
23	N	0.606972	0.395105	0
24	C	0.702319	0.377533	3e-06
25	O	0.733808	0.416646	5e-06
26	C	0.713206	0.342633	6e-06
27	C	0.75456	0.351055	5e-06
28	N	0.788648	0.395557	0
29	C	0.676481	0.297616	4e-06
30	O	0.685138	0.267436	7e-06
31	C	0.630821	0.287539	0.999999
32	C	0.59845	0.24647	0.999998
33	N	0.605064	0.210014	0
34	H	0.677296	0.43549	1e-06
35	H	0.763349	0.326058	8e-06
36	H	0.565621	0.240606	0.999997
37	C	0.580347	0.421214	0
38	C	0.556297	0.435742	0.099856
39	C	0.547022	0.464199	0.986788
40	C	0.522665	0.4847	0.04996
41	C	0.512986	0.48912	0.231856
42	C	0.487026	0.512606	0.23976
43	C	0.483142	0.520859	0.031851
44	C	0.460009	0.542791	0.973914
45	C	0.454806	0.550886	0.785011
46	S	0.425495	0.57781	0.760514
47	C	0.419653	0.578786	0
48	C	0.439217	0.559327	0.099211
49	C	0.503821	0.504517	0.927051
50	C	0.564994	0.469564	0.806002
51	S	0.592256	0.440783	0.774322
52	H	0.545666	0.426339	0.245975
53	H	0.522392	0.478042	0.357856
54	H	0.454832	0.491802	0.305361
55	H	0.505027	0.543018	0.320653
56	H	0.466587	0.5425	0.657902
57	H	0.438613	0.557113	0.253584
58	H	0.506204	0.50526	0.773292
59	H	0.564008	0.489096	0.689079
60	C	0.57811	0.157347	0
61	C	0.56369	0.119169	0.099856
62	C	0.535165	0.081761	0.986788
63	C	0.514746	0.037351	0.04996
64	C	0.510377	0.023402	0.231856
65	C	0.486971	0.974446	0.23976
66	C	0.478707	0.962417	0.031851
67	C	0.456841	0.917797	0.973914
68	C	0.448746	0.904622	0.785011
69	S	0.421909	0.848942	0.760514
70	C	0.420972	0.842202	0
71	C	0.44038	0.880843	0.099211
72	C	0.494973	0.999065	0.927051
73	C	0.529641	0.09419	0.806002
74	S	0.558358	0.149688	0.774322
75	H	0.573218	0.118	0.245975
76	H	0.521438	0.04369	0.357856
77	H	0.508114	0.963292	0.305361
78	H	0.456278	0.962042	0.320653
79	H	0.457085	0.924583	0.657902
80	H	0.442609	0.882444	0.253584
81	H	0.494209	0.000682	0.773292
82	H	0.510022	0.073829	0.689079
83	C	0.84086	0.420762	0
84	C	0.879329	0.444413	0.099856
85	C	0.91713	0.453364	0.986788
86	C	0.961905	0.477273	0.04996
87	C	0.975953	0.486801	0.231856
88	C	0.02532	0.512272	0.23976
89	C	0.037467	0.516047	0.031851
90	C	0.082466	0.538736	0.973914
91	C	0.095764	0.543816	0.785011
92	S	0.151912	0.572571	0.760514
93	C	0.158691	0.578335	0
94	C	0.119719	0.559154	0.099211
95	C	0.000522	0.495741	0.927051
96	C	0.904681	0.43557	0.806002
97	S	0.848702	0.408852	0.774322
98	H	0.880433	0.454984	0.245975
99	H	0.955486	0.477591	0.357856
100	H	0.03637	0.54423	0.305361
101	H	0.038011	0.494263	0.320653
102	H	0.075645	0.532241	0.657902
103	H	0.118094	0.559766	0.253584
104	H	0.998903	0.493381	0.773292
105	H	0.925286	0.436399	0.689079
