data_C138H66N6O6S18_2023-05-13_10:32:40
#******************************************
#
# CIF file created by Zeo++
# Zeo++ is an open source package to
# analyze microporous materials
#
#*******************************************

_cell_length_a		62.4819   
_cell_length_b		62.7803   
_cell_length_c		7   
_cell_angle_alpha		90   
_cell_angle_beta		90   
_cell_angle_gamma		119.792   

_symmetry_space_group_name_H-M		'P1'
_symmetry_Int_Tables_number		1
_symmetry_cell_setting		Monoclinic

loop_
_symmetry_equiv_pos_as_xyz
'+x,+y,+z'

loop_
_atom_site_label
_atom_site_type_symbol
_atom_site_fract_x
_atom_site_fract_y
_atom_site_fract_z
1	C	0.358144	0.67186	0.999995
2	O	0.379896	0.67568	0.999991
3	C	0.338463	0.646338	0.999998
4	C	0.342265	0.627526	0
5	N	0.366613	0.631925	0
6	C	0.313308	0.641808	3e-06
7	O	0.295621	0.619811	5e-06
8	C	0.307282	0.661436	6e-06
9	C	0.284133	0.6567	5e-06
10	N	0.264983	0.631672	0
11	C	0.327909	0.686754	4e-06
12	O	0.323122	0.703728	7e-06
13	C	0.35347	0.692422	0.999999
14	C	0.371654	0.715519	0.999998
15	N	0.368021	0.736022	0
16	H	0.327199	0.609213	1e-06
17	H	0.279263	0.670759	8e-06
18	H	0.39003	0.718817	0.999997
19	C	0.641856	0.32814	0.999995
20	O	0.620104	0.32432	0.999991
21	C	0.661537	0.353662	0.999998
22	C	0.657735	0.372474	0
23	N	0.633387	0.368075	0
24	C	0.686692	0.358192	3e-06
25	O	0.704379	0.380189	5e-06
26	C	0.692718	0.338564	6e-06
27	C	0.715867	0.3433	5e-06
28	N	0.735017	0.368328	0
29	C	0.672091	0.313246	4e-06
30	O	0.676878	0.296272	7e-06
31	C	0.64653	0.307578	0.999999
32	C	0.628346	0.284481	0.999998
33	N	0.631979	0.263978	0
34	H	0.672801	0.390787	1e-06
35	H	0.720737	0.329241	8e-06
36	H	0.60997	0.281183	0.999997
37	C	0.618541	0.382758	0
38	C	0.601366	0.387465	0.081943
39	C	0.608321	0.396791	0.271799
40	C	0.592821	0.403985	0.4082
41	C	0.599422	0.412553	0.592401
42	C	0.581594	0.417202	0.68158
43	C	0.562174	0.412322	0.561608
44	C	0.541033	0.414661	0.606169
45	C	0.521547	0.399397	0.722409
46	C	0.503818	0.407304	0.739244
47	C	0.510316	0.428285	0.634444
48	C	0.49721	0.442158	0.618834
49	C	0.50107	0.459043	0.764514
50	C	0.488918	0.472664	0.764736
51	C	0.493036	0.489316	0.912431
52	C	0.480891	0.502786	0.914087
53	C	0.464499	0.499718	0.767717
54	C	0.459858	0.483204	0.61518
55	C	0.443368	0.479671	0.463583
56	C	0.429414	0.492742	0.453399
57	C	0.405816	0.485163	0.516833
58	C	0.39843	0.5029	0.478747
59	C	0.416452	0.523476	0.38567
60	C	0.415223	0.544772	0.322541
61	C	0.434426	0.568625	0.30369
62	C	0.426547	0.584989	0.234015
63	C	0.401551	0.573146	0.199416
64	C	0.387434	0.58609	0.116727
65	C	0.362451	0.573701	0.077784
66	S	0.352653	0.592687	0.985217
67	C	0.381459	0.617242	0
68	C	0.398495	0.611609	0.071462
69	S	0.387819	0.542767	0.256472
70	S	0.442302	0.520993	0.34763
71	C	0.439522	0.46282	0.317649
72	C	0.451726	0.449237	0.317221
73	C	0.447505	0.432468	0.170268
74	C	0.459432	0.418782	0.169894
75	C	0.475762	0.421771	0.316607
76	C	0.480698	0.438582	0.467349
77	C	0.468342	0.452442	0.466574
78	C	0.472348	0.469486	0.61511
79	S	0.537811	0.438349	0.518193
80	S	0.565451	0.401924	0.343992
81	C	0.630572	0.398796	0.323421
82	S	0.64279	0.389425	0.144515
83	H	0.584678	0.384307	0.010352
84	H	0.616033	0.415311	0.662784
85	H	0.583061	0.42389	0.826399
86	H	0.519989	0.383278	0.792178
87	H	0.487105	0.398015	0.8236
88	H	0.513814	0.461478	0.879698
89	H	0.505764	0.491928	0.027927
90	H	0.48415	0.515676	0.029142
91	H	0.455283	0.510541	0.774063
92	H	0.394397	0.467781	0.587962
93	H	0.380627	0.500522	0.51888
94	H	0.453427	0.574299	0.338183
95	H	0.43896	0.604331	0.209138
96	H	0.349295	0.554414	0.096712
97	H	0.417793	0.625033	0.090142
98	H	0.42674	0.460356	0.202625
99	H	0.434816	0.429895	0.054557
100	H	0.456072	0.405791	0.055422
101	H	0.48475	0.410722	0.311492
102	H	0.640527	0.405238	0.456383
103	C	0.616805	0.234357	0
104	C	0.612158	0.212613	0.081943
105	C	0.602777	0.210233	0.271799
106	C	0.595629	0.187675	0.4082
107	C	0.587011	0.185699	0.592401
108	C	0.582423	0.163362	0.68158
109	C	0.587397	0.148935	0.561608
110	C	0.585141	0.125609	0.606169
111	C	0.600527	0.121457	0.722409
112	C	0.592673	0.095975	0.739244
113	C	0.571608	0.081534	0.634444
114	C	0.557753	0.054703	0.618834
115	C	0.540806	0.041721	0.764514
116	C	0.5272	0.016089	0.764736
117	C	0.510486	0.003596	0.912431
118	C	0.49703	0.978121	0.914087
119	C	0.500175	0.964895	0.767717
120	C	0.516752	0.97673	0.61518
121	C	0.520364	0.963872	0.463583
122	C	0.507316	0.936997	0.453399
123	C	0.515014	0.921107	0.516833
124	C	0.497261	0.896109	0.478747
125	C	0.476554	0.893518	0.38567
126	C	0.455206	0.87109	0.322541
127	C	0.431209	0.866409	0.30369
128	C	0.414833	0.842287	0.234015
129	C	0.426813	0.829255	0.199416
130	C	0.413893	0.802345	0.116727
131	C	0.42642	0.78987	0.077784
132	S	0.407423	0.761232	0.985217
133	C	0.382682	0.76539	0
134	C	0.38826	0.787919	0.071462
135	S	0.45733	0.845869	0.256472
136	S	0.478935	0.921664	0.34763
137	C	0.537276	0.976833	0.317649
138	C	0.550844	0.002479	0.317221
139	C	0.567677	0.014987	0.170268
140	C	0.581349	0.040461	0.169894
141	C	0.578284	0.053703	0.316607
142	C	0.561407	0.041864	0.467349
143	C	0.547562	0.015792	0.466574
144	C	0.530456	0.002797	0.61511
145	S	0.561403	0.09882	0.518193
146	S	0.59781	0.162544	0.343992
147	C	0.600674	0.230335	0.323421
148	S	0.610019	0.251802	0.144515
149	H	0.615394	0.199183	0.010352
150	H	0.584176	0.19945	0.662784
151	H	0.575711	0.15816	0.826399
152	H	0.616696	0.13596	0.792178
153	H	0.602056	0.088626	0.8236
154	H	0.538312	0.051954	0.879698
155	H	0.507813	0.013637	0.027927
156	H	0.484091	0.96852	0.029142
157	H	0.489361	0.944964	0.774063
158	H	0.53249	0.927075	0.587962
159	H	0.499719	0.880795	0.51888
160	H	0.425439	0.879629	0.338183
161	H	0.395388	0.835355	0.209138
162	H	0.445813	0.79601	0.096712
163	H	0.374719	0.793717	0.090142
164	H	0.5398	0.966592	0.202625
165	H	0.570309	0.004947	0.054557
166	H	0.594389	0.050061	0.055422
167	H	0.589325	0.073632	0.311492
168	H	0.594173	0.233807	0.456383
169	C	0.764271	0.382504	0
170	C	0.786094	0.399542	0.081943
171	C	0.788518	0.392595	0.271799
172	C	0.811167	0.407959	0.4082
173	C	0.813185	0.401368	0.592401
174	C	0.835601	0.419055	0.68158
175	C	0.850045	0.438363	0.561608
176	C	0.873443	0.459349	0.606169
177	C	0.877543	0.478766	0.722409
178	C	0.903126	0.496341	0.739244
179	C	0.917693	0.4898	0.634444
180	C	0.944654	0.502759	0.618834
181	C	0.957741	0.498855	0.764514
182	C	0.983499	0.510867	0.764736
183	C	0.996096	0.506708	0.912431
184	C	0.021696	0.518713	0.914087
185	C	0.034943	0.535007	0.767717
186	C	0.023008	0.539685	0.61518
187	C	0.035886	0.556077	0.463583
188	C	0.062887	0.569881	0.453399
189	C	0.078787	0.593349	0.516833
190	C	0.103926	0.60061	0.478747
191	C	0.106611	0.582626	0.38567
192	C	0.129188	0.583758	0.322541
193	C	0.133982	0.564586	0.30369
194	C	0.158237	0.572343	0.234015
195	C	0.171254	0.597218	0.199416
196	C	0.198291	0.611184	0.116727
197	C	0.210746	0.636048	0.077784
198	S	0.239541	0.6457	0.985217
199	C	0.235475	0.616988	0
200	C	0.212862	0.600092	0.071462
201	S	0.154468	0.610983	0.256472
202	S	0.07838	0.556963	0.34763
203	C	0.022819	0.559966	0.317649
204	C	0.997047	0.547903	0.317221
205	C	0.984435	0.552165	0.170268
206	C	0.958836	0.540377	0.169894
207	C	0.945571	0.524146	0.316607
208	C	0.957512	0.519173	0.467349
209	C	0.983713	0.531386	0.466574
210	C	0.996814	0.527337	0.61511
211	S	0.900404	0.462451	0.518193
212	S	0.836356	0.435151	0.343992
213	C	0.768371	0.370488	0.323421
214	S	0.746808	0.358392	0.144515
215	H	0.799545	0.416129	0.010352
216	H	0.799408	0.384859	0.662784
217	H	0.840845	0.41757	0.826399
218	H	0.862933	0.480381	0.792178
219	H	0.910455	0.512979	0.8236
220	H	0.947492	0.486188	0.879698
221	H	0.986039	0.494055	0.027927
222	H	0.031376	0.515423	0.029142
223	H	0.054973	0.544114	0.774063
224	H	0.07273	0.604763	0.587962
225	H	0.119271	0.618303	0.51888
226	H	0.120751	0.545691	0.338183
227	H	0.165269	0.559934	0.209138
228	H	0.204509	0.649196	0.096712
229	H	0.207105	0.58087	0.090142
230	H	0.033077	0.572671	0.202625
231	H	0.994491	0.564778	0.054557
232	H	0.949155	0.543768	0.055422
233	H	0.925542	0.515265	0.311492
234	H	0.764917	0.360574	0.456383
