data_C90H54N6O6S6_2023-05-11_06:40:43
#******************************************
#
# CIF file created by Zeo++
# Zeo++ is an open source package to
# analyze microporous materials
#
#*******************************************

_cell_length_a		47.6378   
_cell_length_b		47.9362   
_cell_length_c		7   
_cell_angle_alpha		90   
_cell_angle_beta		90   
_cell_angle_gamma		119.728   

_symmetry_space_group_name_H-M		'P1'
_symmetry_Int_Tables_number		1
_symmetry_cell_setting		Monoclinic

loop_
_symmetry_equiv_pos_as_xyz
'+x,+y,+z'

loop_
_atom_site_label
_atom_site_type_symbol
_atom_site_fract_x
_atom_site_fract_y
_atom_site_fract_z
1	C	0.365866	0.673464	0.999995
2	O	0.394389	0.678463	0.999991
3	C	0.340096	0.640061	0.999998
4	C	0.345114	0.615439	0
5	N	0.377043	0.621197	0
6	C	0.30711	0.634131	3e-06
7	O	0.28395	0.605341	5e-06
8	C	0.299174	0.659821	6e-06
9	C	0.268819	0.653622	5e-06
10	N	0.243744	0.620864	0
11	C	0.326185	0.692958	4e-06
12	O	0.319877	0.715173	7e-06
13	C	0.359701	0.700376	0.999999
14	C	0.383512	0.730606	0.999998
15	N	0.378712	0.757441	0
16	H	0.325386	0.59147	1e-06
17	H	0.262407	0.672022	8e-06
18	H	0.407608	0.734923	0.999997
19	C	0.634134	0.326536	0.999995
20	O	0.605611	0.321537	0.999991
21	C	0.659904	0.359939	0.999998
22	C	0.654886	0.384561	0
23	N	0.622957	0.378803	0
24	C	0.69289	0.365869	3e-06
25	O	0.71605	0.394659	5e-06
26	C	0.700826	0.340179	6e-06
27	C	0.731181	0.346378	5e-06
28	N	0.756256	0.379136	0
29	C	0.673815	0.307042	4e-06
30	O	0.680123	0.284827	7e-06
31	C	0.640299	0.299624	0.999999
32	C	0.616488	0.269394	0.999998
33	N	0.621288	0.242559	0
34	H	0.674614	0.40853	1e-06
35	H	0.737593	0.327978	8e-06
36	H	0.592392	0.265077	0.999997
37	C	0.60346	0.398022	0
38	C	0.586788	0.414462	0.015289
39	C	0.581569	0.419579	0.210822
40	C	0.565077	0.435833	0.275163
41	C	0.558995	0.441837	0.453053
42	C	0.54143	0.459134	0.445408
43	C	0.536347	0.464125	0.262594
44	C	0.519511	0.480692	0.189959
45	C	0.506068	0.493927	0.31321
46	C	0.490036	0.509699	0.242785
47	C	0.486821	0.512849	0.046356
48	C	0.469984	0.529416	0.973718
49	C	0.464846	0.534349	0.790897
50	C	0.447304	0.551666	0.783242
51	C	0.441286	0.557742	0.961096
52	C	0.424776	0.574097	0.023286
53	C	0.420093	0.578856	0.212863
54	S	0.399347	0.599374	0.239504
55	C	0.39654	0.601978	0
56	C	0.410834	0.587784	0.89927
57	C	0.455211	0.544093	0.102504
58	C	0.500266	0.499616	0.923105
59	C	0.516299	0.483845	0.993531
60	C	0.55118	0.449511	0.133811
61	C	0.594807	0.406504	0.333038
62	S	0.61306	0.388519	0.213672
63	H	0.578775	0.422385	0.892507
64	H	0.565776	0.435166	0.585184
65	H	0.533993	0.466465	0.572534
66	H	0.507705	0.492323	0.467271
67	H	0.480173	0.519409	0.346513
68	H	0.472228	0.526961	0.663777
69	H	0.440477	0.55831	0.651179
70	H	0.427659	0.571469	0.339595
71	H	0.411301	0.587214	0.744707
72	H	0.436203	0.525678	0.19226
73	H	0.473763	0.563083	0.191642
74	H	0.498632	0.501222	0.769043
75	H	0.526163	0.474135	0.889805
76	H	0.532675	0.430537	0.044367
77	H	0.570212	0.467955	0.04432
78	H	0.594865	0.406423	0.487495
79	C	0.601436	0.203791	0
80	C	0.585028	0.170917	0.015289
81	C	0.579923	0.160656	0.210822
82	C	0.563701	0.128146	0.275163
83	C	0.55771	0.116147	0.453053
84	C	0.540447	0.081537	0.445408
85	C	0.535467	0.071536	0.262594
86	C	0.518933	0.038373	0.189959
87	C	0.505725	0.011887	0.31321
88	C	0.489985	0.980313	0.242785
89	C	0.486842	0.973995	0.046356
90	C	0.470308	0.940831	0.973718
91	C	0.465386	0.930833	0.790897
92	C	0.448104	0.896225	0.783242
93	C	0.442039	0.884219	0.961096
94	C	0.425717	0.85159	0.023286
95	C	0.420967	0.842216	0.212863
96	S	0.400489	0.801249	0.239504
97	C	0.397891	0.795877	0
98	C	0.412057	0.82416	0.89927
99	C	0.45566	0.911594	0.102504
100	C	0.500048	0.00048	0.923105
101	C	0.515787	0.032054	0.993531
102	C	0.550051	0.10077	0.133811
103	C	0.592971	0.186779	0.333038
104	S	0.610919	0.222756	0.213672
105	H	0.577122	0.155097	0.892507
106	H	0.564367	0.129502	0.585184
107	H	0.533131	0.066875	0.572534
108	H	0.507325	0.015105	0.467271
109	H	0.480295	0.960881	0.346513
110	H	0.47276	0.945497	0.663777
111	H	0.441474	0.882852	0.651179
112	H	0.428338	0.857061	0.339595
113	H	0.412627	0.82519	0.744707
114	H	0.474244	0.911069	0.19226
115	H	0.436502	0.911093	0.191642
116	H	0.498444	0.997263	0.769043
117	H	0.525476	0.051487	0.889805
118	H	0.569193	0.1013	0.044367
119	H	0.531438	0.101288	0.04432
120	H	0.593052	0.186917	0.487495
121	C	0.794602	0.397689	0
122	C	0.827682	0.414123	0.015289
123	C	0.838006	0.419267	0.210822
124	C	0.87072	0.435523	0.275163
125	C	0.882794	0.441518	0.453053
126	C	0.91762	0.458831	0.445408
127	C	0.927684	0.463842	0.262594
128	C	0.961055	0.480437	0.189959
129	C	0.987706	0.493688	0.31321
130	C	0.019477	0.50949	0.242785
131	C	0.025835	0.512659	0.046356
132	C	0.059206	0.529255	0.973718
133	C	0.069266	0.53432	0.790897
134	C	0.104091	0.551611	0.783242
135	C	0.116172	0.557541	0.961096
136	C	0.149005	0.573815	0.023286
137	C	0.158438	0.57843	0.212863
138	S	0.199662	0.598879	0.239504
139	C	0.205067	0.601646	0
140	C	0.176607	0.587558	0.89927
141	C	0.088626	0.543815	0.102504
142	C	0.999184	0.499406	0.923105
143	C	0.967413	0.483603	0.993531
144	C	0.898267	0.449221	0.133811
145	C	0.81172	0.406219	0.333038
146	S	0.775518	0.388227	0.213672
147	H	0.843601	0.422021	0.892507
148	H	0.869355	0.434834	0.585184
149	H	0.932375	0.466162	0.572534
150	H	0.984468	0.492074	0.467271
151	H	0.039031	0.519212	0.346513
152	H	0.05451	0.527045	0.663777
153	H	0.117547	0.55834	0.651179
154	H	0.143501	0.570972	0.339595
155	H	0.17557	0.587097	0.744707
156	H	0.089051	0.562754	0.19226
157	H	0.089233	0.525326	0.191642
158	H	0.002421	0.501017	0.769043
159	H	0.947859	0.47388	0.889805
160	H	0.89763	0.467664	0.044367
161	H	0.897849	0.430258	0.04432
162	H	0.811581	0.406162	0.487495
