data_C54H24N6O6S9_2023-05-30_13:59:41
#******************************************
#
# CIF file created by Zeo++
# Zeo++ is an open source package to
# analyze microporous materials
#
#*******************************************

_cell_length_a		35.6381   
_cell_length_b		35.9367   
_cell_length_c		7   
_cell_angle_alpha		90   
_cell_angle_beta		90   
_cell_angle_gamma		119.637   

_symmetry_space_group_name_H-M		'P1'
_symmetry_Int_Tables_number		1
_symmetry_cell_setting		Monoclinic

loop_
_symmetry_equiv_pos_as_xyz
'+x,+y,+z'

loop_
_atom_site_label
_atom_site_type_symbol
_atom_site_fract_x
_atom_site_fract_y
_atom_site_fract_z
1	C	0.376803	0.675726	0.999995
2	O	0.414918	0.682388	0.999991
3	C	0.342438	0.631209	0.999998
4	C	0.349207	0.598395	0
5	N	0.391871	0.606069	0
6	C	0.29836	0.623307	3e-06
7	O	0.267472	0.584937	5e-06
8	C	0.287688	0.657543	6e-06
9	C	0.247128	0.649282	5e-06
10	N	0.21369	0.605626	0
11	C	0.323713	0.701705	4e-06
12	O	0.315226	0.731312	7e-06
13	C	0.368496	0.711591	0.999999
14	C	0.40025	0.751879	0.999998
15	N	0.393768	0.787642	0
16	H	0.322894	0.566452	1e-06
17	H	0.238512	0.673804	8e-06
18	H	0.432449	0.757632	0.999997
19	C	0.623197	0.324274	0.999995
20	O	0.585082	0.317612	0.999991
21	C	0.657562	0.368791	0.999998
22	C	0.650793	0.401605	0
23	N	0.608129	0.393931	0
24	C	0.70164	0.376693	3e-06
25	O	0.732528	0.415063	5e-06
26	C	0.712312	0.342457	6e-06
27	C	0.752872	0.350718	5e-06
28	N	0.78631	0.394374	0
29	C	0.676287	0.298295	4e-06
30	O	0.684774	0.268688	7e-06
31	C	0.631504	0.288409	0.999999
32	C	0.59975	0.248121	0.999998
33	N	0.606232	0.212358	0
34	H	0.677106	0.433548	1e-06
35	H	0.761488	0.326196	8e-06
36	H	0.567551	0.242368	0.999997
37	C	0.417981	0.580457	0
38	C	0.428974	0.569673	0.829396
39	C	0.452054	0.547033	0.858911
40	C	0.45747	0.54172	0.050462
41	C	0.481591	0.518059	0.128896
42	C	0.486573	0.513171	0.320509
43	S	0.514053	0.486215	0.360188
44	C	0.519991	0.480391	0.12002
45	C	0.542116	0.458688	0.045603
46	C	0.548262	0.452662	0.854668
47	C	0.571373	0.42999	0.828094
48	C	0.582019	0.419543	0
49	S	0.56496	0.436275	0.189554
50	C	0.500864	0.499153	0.014063
51	S	0.434712	0.564044	0.192348
52	H	0.421142	0.577356	0.690705
53	H	0.463834	0.535478	0.743711
54	H	0.475556	0.523979	0.441147
55	H	0.536787	0.46392	0.737041
56	H	0.579448	0.422071	0.69048
57	H	0.500697	0.499317	0.859544
58	C	0.419311	0.838866	0
59	C	0.430066	0.860434	0.829396
60	C	0.452644	0.905713	0.858911
61	C	0.457943	0.91634	0.050462
62	C	0.48154	0.963661	0.128896
63	C	0.486414	0.973437	0.320509
64	S	0.513298	0.027349	0.360188
65	C	0.519106	0.038998	0.12002
66	C	0.54075	0.082405	0.045603
67	C	0.54676	0.094459	0.854668
68	C	0.569371	0.139803	0.828094
69	C	0.579789	0.160692	0
70	S	0.563103	0.127227	0.189554
71	C	0.500395	0.001474	0.014063
72	S	0.435679	0.871691	0.192348
73	H	0.422403	0.845068	0.690705
74	H	0.464168	0.928824	0.743711
75	H	0.475636	0.951822	0.441147
76	H	0.535532	0.071945	0.737041
77	H	0.577268	0.155643	0.69048
78	H	0.500231	0.001146	0.859544
79	C	0.162038	0.580014	0
80	C	0.140289	0.56923	0.829396
81	C	0.094632	0.54659	0.858911
82	C	0.083916	0.541277	0.050462
83	C	0.036199	0.517616	0.128896
84	C	0.026342	0.512728	0.320509
85	S	0.971979	0.485772	0.360188
86	C	0.960232	0.479947	0.12002
87	C	0.916463	0.458244	0.045603
88	C	0.904308	0.452215	0.854668
89	C	0.858585	0.429544	0.828094
90	C	0.837521	0.419101	0
91	S	0.871266	0.435835	0.189554
92	C	0.998071	0.49871	0.014063
93	S	0.128938	0.563602	0.192348
94	H	0.155784	0.576913	0.690705
95	H	0.071328	0.535034	0.743711
96	H	0.048137	0.523536	0.441147
97	H	0.92701	0.463471	0.737041
98	H	0.842613	0.421623	0.69048
99	H	0.998401	0.498874	0.859544
