data_C84H36N6O6S18_2023-05-15_16:35:03
#******************************************
#
# CIF file created by Zeo++
# Zeo++ is an open source package to
# analyze microporous materials
#
#*******************************************

_cell_length_a		50.9742   
_cell_length_b		51.2727   
_cell_length_c		7   
_cell_angle_alpha		90   
_cell_angle_beta		90   
_cell_angle_gamma		119.746   

_symmetry_space_group_name_H-M		'P1'
_symmetry_Int_Tables_number		1
_symmetry_cell_setting		Monoclinic

loop_
_symmetry_equiv_pos_as_xyz
'+x,+y,+z'

loop_
_atom_site_label
_atom_site_type_symbol
_atom_site_fract_x
_atom_site_fract_y
_atom_site_fract_z
1	C	0.363739	0.673023	0.999995
2	O	0.390397	0.677697	0.999991
3	C	0.339645	0.641787	0.999998
4	C	0.344326	0.618764	0
5	N	0.374166	0.624148	0
6	C	0.308816	0.636243	3e-06
7	O	0.287161	0.609321	5e-06
8	C	0.301407	0.660265	6e-06
9	C	0.273038	0.654468	5e-06
10	N	0.249592	0.623837	0
11	C	0.326662	0.691251	4e-06
12	O	0.320774	0.712025	7e-06
13	C	0.357986	0.698188	0.999999
14	C	0.380249	0.726456	0.999998
15	N	0.375772	0.751549	0
16	H	0.325881	0.596351	1e-06
17	H	0.267051	0.671675	8e-06
18	H	0.402769	0.730492	0.999997
19	C	0.636261	0.326977	0.999995
20	O	0.609603	0.322303	0.999991
21	C	0.660355	0.358213	0.999998
22	C	0.655674	0.381236	0
23	N	0.625834	0.375852	0
24	C	0.691184	0.363757	3e-06
25	O	0.712839	0.390679	5e-06
26	C	0.698593	0.339735	6e-06
27	C	0.726962	0.345532	5e-06
28	N	0.750408	0.376163	0
29	C	0.673338	0.308749	4e-06
30	O	0.679226	0.287975	7e-06
31	C	0.642014	0.301812	0.999999
32	C	0.619751	0.273544	0.999998
33	N	0.624228	0.248451	0
34	H	0.674119	0.403649	1e-06
35	H	0.732949	0.328325	8e-06
36	H	0.597231	0.269508	0.999997
37	C	0.392381	0.606177	0
38	C	0.398101	0.600536	0.818068
39	S	0.417544	0.581354	0.819977
40	C	0.418394	0.580514	0.06627
41	C	0.432614	0.566485	0.172157
42	C	0.434258	0.564865	0.36862
43	C	0.449795	0.549537	0.428378
44	C	0.459942	0.539524	0.277264
45	C	0.476483	0.523204	0.289789
46	C	0.484904	0.51489	0.457007
47	C	0.500885	0.499125	0.420317
48	C	0.504303	0.495758	0.230859
49	C	0.520282	0.479994	0.194133
50	C	0.528694	0.471691	0.361374
51	C	0.545186	0.455419	0.37952
52	C	0.553817	0.446904	0.544746
53	C	0.569813	0.431122	0.508662
54	C	0.573304	0.427677	0.316095
55	C	0.58823	0.412951	0.227237
56	C	0.591713	0.409516	0.03395
57	C	0.607619	0.393823	0
58	C	0.616107	0.385447	0.164058
59	S	0.604702	0.396698	0.361716
60	S	0.556891	0.443871	0.182923
61	S	0.517183	0.483042	0.561361
62	S	0.488004	0.511842	0.089982
63	S	0.450174	0.549158	0.064843
64	C	0.403821	0.59489	0.142765
65	H	0.391945	0.606609	0.684323
66	H	0.4248	0.574197	0.467838
67	H	0.453185	0.546193	0.577105
68	H	0.480112	0.519614	0.599435
69	H	0.525067	0.475277	0.051558
70	H	0.549048	0.451609	0.68748
71	H	0.578256	0.422793	0.621497
72	H	0.583219	0.417898	0.921789
73	H	0.62836	0.373357	0.178594
74	H	0.401481	0.597198	0.294601
75	C	0.393709	0.787491	0
76	C	0.39934	0.798775	0.818068
77	S	0.418486	0.837139	0.819977
78	C	0.419324	0.838818	0.06627
79	C	0.433327	0.866877	0.172157
80	C	0.434943	0.870118	0.36862
81	C	0.450243	0.900776	0.428378
82	C	0.460237	0.920799	0.277264
83	C	0.476526	0.953439	0.289789
84	C	0.484824	0.970061	0.457007
85	C	0.500559	0.001593	0.420317
86	C	0.50392	0.008333	0.230859
87	C	0.519654	0.039862	0.194133
88	C	0.527942	0.056464	0.361374
89	C	0.544183	0.089007	0.37952
90	C	0.552682	0.106037	0.544746
91	C	0.568434	0.137601	0.508662
92	C	0.571872	0.144489	0.316095
93	C	0.58657	0.173942	0.227237
94	C	0.589999	0.180814	0.03395
95	C	0.605663	0.212199	0
96	C	0.614023	0.22895	0.164058
97	S	0.602793	0.206446	0.361716
98	S	0.555709	0.112103	0.182923
99	S	0.516612	0.033756	0.561361
100	S	0.487866	0.976167	0.089982
101	S	0.450621	0.901529	0.064843
102	C	0.404975	0.810065	0.142765
103	H	0.393278	0.786628	0.684323
104	H	0.425629	0.851456	0.467838
105	H	0.45358	0.907464	0.577105
106	H	0.480109	0.960609	0.599435
107	H	0.524362	0.049299	0.051558
108	H	0.547985	0.096627	0.68748
109	H	0.576747	0.15426	0.621497
110	H	0.581633	0.164051	0.921789
111	H	0.62609	0.253129	0.178594
112	H	0.402671	0.805448	0.294601
113	C	0.213441	0.605867	0
114	C	0.20209	0.600224	0.818068
115	S	0.163502	0.581041	0.819977
116	C	0.161813	0.580202	0.06627
117	C	0.13359	0.566172	0.172157
118	C	0.13033	0.564551	0.36862
119	C	0.099494	0.549222	0.428378
120	C	0.079353	0.539211	0.277264
121	C	0.046523	0.522892	0.289789
122	C	0.029803	0.514583	0.457007
123	C	0.998087	0.498816	0.420317
124	C	0.991308	0.495444	0.230859
125	C	0.959594	0.479679	0.194133
126	C	0.942896	0.47138	0.361374
127	C	0.910162	0.455109	0.37952
128	C	0.893033	0.446594	0.544746
129	C	0.861284	0.430812	0.508662
130	C	0.854355	0.427367	0.316095
131	C	0.824731	0.412641	0.227237
132	C	0.817818	0.409205	0.03395
133	C	0.786249	0.393512	0
134	C	0.769401	0.385138	0.164058
135	S	0.792036	0.39639	0.361716
136	S	0.886931	0.44356	0.182923
137	S	0.965736	0.482737	0.561361
138	S	0.023661	0.511525	0.089982
139	S	0.098736	0.548848	0.064843
140	C	0.190735	0.59458	0.142765
141	H	0.214308	0.606297	0.684323
142	H	0.149102	0.573882	0.467838
143	H	0.092766	0.545877	0.577105
144	H	0.03931	0.519311	0.599435
145	H	0.950102	0.474958	0.051558
146	H	0.902497	0.451298	0.68748
147	H	0.844528	0.422482	0.621497
148	H	0.834679	0.417585	0.921789
149	H	0.745081	0.373049	0.178594
150	H	0.195379	0.596888	0.294601
