data_C96H48N12O6S12_2023-05-13_10:41:51
#******************************************
#
# CIF file created by Zeo++
# Zeo++ is an open source package to
# analyze microporous materials
#
#*******************************************

_cell_length_a		54.8712   
_cell_length_b		55.1697   
_cell_length_c		7   
_cell_angle_alpha		90   
_cell_angle_beta		90   
_cell_angle_gamma		119.764   

_symmetry_space_group_name_H-M		'P1'
_symmetry_Int_Tables_number		1
_symmetry_cell_setting		Monoclinic

loop_
_symmetry_equiv_pos_as_xyz
'+x,+y,+z'

loop_
_atom_site_label
_atom_site_type_symbol
_atom_site_fract_x
_atom_site_fract_y
_atom_site_fract_z
1	C	0.361582	0.672575	0.999995
2	O	0.386348	0.67692	0.999991
3	C	0.339188	0.643541	0.999998
4	C	0.343529	0.62214	0
5	N	0.371252	0.627144	0
6	C	0.310547	0.638387	3e-06
7	O	0.290421	0.613362	5e-06
8	C	0.303673	0.660716	6e-06
9	C	0.277316	0.655328	5e-06
10	N	0.255525	0.626855	0
11	C	0.327144	0.689519	4e-06
12	O	0.321681	0.708829	7e-06
13	C	0.356246	0.695967	0.999999
14	C	0.376937	0.722243	0.999998
15	N	0.372787	0.745567	0
16	H	0.326386	0.601306	1e-06
17	H	0.271761	0.671322	8e-06
18	H	0.397859	0.725995	0.999997
19	C	0.638418	0.327425	0.999995
20	O	0.613652	0.32308	0.999991
21	C	0.660812	0.356459	0.999998
22	C	0.656471	0.37786	0
23	N	0.628748	0.372856	0
24	C	0.689453	0.361613	3e-06
25	O	0.709579	0.386638	5e-06
26	C	0.696327	0.339284	6e-06
27	C	0.722684	0.344672	5e-06
28	N	0.744475	0.373145	0
29	C	0.672856	0.310481	4e-06
30	O	0.678319	0.291171	7e-06
31	C	0.643754	0.304033	0.999999
32	C	0.623063	0.277757	0.999998
33	N	0.627213	0.254433	0
34	H	0.673614	0.398694	1e-06
35	H	0.728239	0.328678	8e-06
36	H	0.602141	0.274005	0.999997
37	C	0.611833	0.38956	0
38	C	0.614455	0.379799	0.1745
39	S	0.598692	0.3887	0.349708
40	C	0.588427	0.405975	0.191424
41	C	0.573238	0.419853	0.254383
42	C	0.5711	0.428073	0.438011
43	C	0.554868	0.441794	0.446882
44	C	0.544659	0.443628	0.27037
45	C	0.527685	0.456473	0.221372
46	C	0.535214	0.483307	0.286056
47	C	0.518811	0.495218	0.236793
48	C	0.494811	0.479838	0.125943
49	C	0.476842	0.49135	0.070107
50	C	0.454166	0.487408	0.182827
51	C	0.437912	0.49908	0.123708
52	C	0.444234	0.514022	0.951894
53	C	0.427886	0.526544	0.881691
54	C	0.415762	0.523723	0.704631
55	C	0.402153	0.539915	0.686408
56	C	0.404472	0.555188	0.849119
57	C	0.393973	0.574328	0.879725
58	C	0.403058	0.595585	0.013261
59	C	0.388167	0.61044	0
60	C	0.36815	0.600662	0.859169
61	S	0.367352	0.573126	0.741087
62	S	0.422627	0.548835	0.02372
63	C	0.467254	0.516814	0.848988
64	N	0.483778	0.506237	0.904203
65	N	0.486544	0.453408	0.065593
66	C	0.503192	0.442611	0.112813
67	S	0.554971	0.42876	0.095971
68	C	0.596991	0.404476	0.007593
69	H	0.624707	0.367923	0.208712
70	H	0.580847	0.424663	0.562034
71	H	0.55085	0.449784	0.577649
72	H	0.554019	0.495245	0.371684
73	H	0.52471	0.516205	0.283795
74	H	0.449138	0.47535	0.314096
75	H	0.42019	0.496025	0.211113
76	H	0.416583	0.510685	0.59194
77	H	0.39162	0.540551	0.55743
78	H	0.419765	0.600364	0.11506
79	H	0.354009	0.608171	0.818914
80	H	0.473534	0.528254	0.714326
81	H	0.495747	0.421533	0.058045
82	H	0.592973	0.413934	0.884429
83	C	0.609954	0.220735	0
84	C	0.619733	0.233052	0.1745
85	S	0.610879	0.208553	0.349708
86	C	0.5936	0.181174	0.191424
87	C	0.579752	0.152292	0.254383
88	C	0.571517	0.141989	0.438011
89	C	0.557831	0.112227	0.446882
90	C	0.55604	0.100272	0.27037
91	C	0.543237	0.070646	0.221372
92	C	0.516285	0.05141	0.286056
93	C	0.504415	0.02328	0.236793
94	C	0.519956	0.014773	0.125943
95	C	0.508495	0.985487	0.070107
96	C	0.512556	0.96691	0.182827
97	C	0.500926	0.939165	0.123708
98	C	0.485908	0.930567	0.951894
99	C	0.473426	0.901883	0.881691
100	C	0.476312	0.892661	0.704631
101	C	0.460136	0.863043	0.686408
102	C	0.444805	0.850144	0.849119
103	C	0.425656	0.820677	0.879725
104	C	0.404291	0.808535	0.013261
105	C	0.389462	0.778976	0
106	C	0.399365	0.768846	0.859169
107	S	0.426989	0.79546	0.741087
108	S	0.451091	0.87448	0.02372
109	C	0.482998	0.95063	0.848988
110	N	0.493529	0.977552	0.904203
111	N	0.546506	0.032875	0.065593
112	C	0.557257	0.060139	0.112813
113	S	0.570905	0.125302	0.095971
114	C	0.595063	0.191163	0.007593
115	H	0.631597	0.255045	0.208712
116	H	0.574892	0.155055	0.562034
117	H	0.549836	0.100288	0.577649
118	H	0.504221	0.058188	0.371684
119	H	0.483337	0.008247	0.283795
120	H	0.524675	0.973922	0.314096
121	H	0.504075	0.924621	0.211113
122	H	0.489386	0.906452	0.59194
123	H	0.459548	0.851959	0.55743
124	H	0.399418	0.820357	0.11506
125	H	0.3919	0.747341	0.818914
126	H	0.471494	0.945475	0.714326
127	H	0.578436	0.073731	0.058045
128	H	0.585595	0.177764	0.884429
129	C	0.777777	0.389271	0
130	C	0.765376	0.386716	0.1745
131	S	0.789993	0.402314	0.349708
132	C	0.817537	0.412418	0.191424
133	C	0.846573	0.427422	0.254383
134	C	0.856947	0.429505	0.438011
135	C	0.886864	0.445545	0.446882
136	C	0.898865	0.455667	0.27037
137	C	0.928643	0.472448	0.221372
138	C	0.948065	0.46485	0.286056
139	C	0.976338	0.481069	0.236793
140	C	0.984797	0.504956	0.125943
141	C	0.014227	0.52273	0.070107
142	C	0.032842	0.545249	0.182827
143	C	0.060727	0.561322	0.123708
144	C	0.069423	0.554978	0.951894
145	C	0.098253	0.57114	0.881691
146	C	0.107489	0.583182	0.704631
147	C	0.137275	0.596609	0.686408
148	C	0.150287	0.594235	0.849119
149	C	0.179935	0.604562	0.879725
150	C	0.192215	0.595447	0.013261
151	C	0.221935	0.610151	0
152	C	0.232049	0.630059	0.859169
153	S	0.205223	0.630982	0.741087
154	S	0.125846	0.576252	0.02372
155	C	0.049312	0.532123	0.848988
156	N	0.022257	0.515778	0.904203
157	N	0.966514	0.513284	0.065593
158	C	0.939115	0.496817	0.112813
159	S	0.873688	0.445505	0.095971
160	C	0.80751	0.403927	0.007593
161	H	0.74326	0.3766	0.208712
162	H	0.843825	0.419849	0.562034
163	H	0.898878	0.449495	0.577649
164	H	0.941324	0.446134	0.371684
165	H	0.991517	0.475116	0.283795
166	H	0.025751	0.550295	0.314096
167	H	0.0753	0.578921	0.211113
168	H	0.093594	0.58243	0.59194
169	H	0.148396	0.607058	0.55743
170	H	0.180381	0.578847	0.11506
171	H	0.253656	0.644055	0.818914
172	H	0.054537	0.525838	0.714326
173	H	0.925381	0.504304	0.058045
174	H	0.820995	0.407869	0.884429
