data_C72H36N6O6S6_2023-05-30_05:14:42
#******************************************
#
# CIF file created by Zeo++
# Zeo++ is an open source package to
# analyze microporous materials
#
#*******************************************

_cell_length_a		39.7349   
_cell_length_b		40.0335   
_cell_length_c		7   
_cell_angle_alpha		90   
_cell_angle_beta		90   
_cell_angle_gamma		119.674   

_symmetry_space_group_name_H-M		'P1'
_symmetry_Int_Tables_number		1
_symmetry_cell_setting		Monoclinic

loop_
_symmetry_equiv_pos_as_xyz
'+x,+y,+z'

loop_
_atom_site_label
_atom_site_type_symbol
_atom_site_fract_x
_atom_site_fract_y
_atom_site_fract_z
1	C	0.372328	0.674802	0.999995
2	O	0.406517	0.680784	0.999991
3	C	0.341476	0.634825	0.999998
4	C	0.347524	0.605359	0
5	N	0.385795	0.61225	0
6	C	0.301937	0.62773	3e-06
7	O	0.274207	0.593274	5e-06
8	C	0.292388	0.658474	6e-06
9	C	0.256005	0.651055	5e-06
10	N	0.225985	0.611852	0
11	C	0.324729	0.698131	4e-06
12	O	0.317137	0.724718	7e-06
13	C	0.364901	0.707009	0.999999
14	C	0.393409	0.743187	0.999998
15	N	0.387619	0.775302	0
16	H	0.323903	0.576674	1e-06
17	H	0.248294	0.673076	8e-06
18	H	0.422291	0.748353	0.999997
19	C	0.627672	0.325198	0.999995
20	O	0.593483	0.319216	0.999991
21	C	0.658524	0.365175	0.999998
22	C	0.652476	0.394641	0
23	N	0.614205	0.38775	0
24	C	0.698063	0.37227	3e-06
25	O	0.725793	0.406726	5e-06
26	C	0.707612	0.341526	6e-06
27	C	0.743995	0.348945	5e-06
28	N	0.774015	0.388148	0
29	C	0.675271	0.301869	4e-06
30	O	0.682863	0.275282	7e-06
31	C	0.635099	0.292991	0.999999
32	C	0.606591	0.256813	0.999998
33	N	0.612381	0.224698	0
34	H	0.676097	0.423326	1e-06
35	H	0.751706	0.326924	8e-06
36	H	0.577709	0.251647	0.999997
37	C	0.409195	0.58925	0
38	C	0.406794	0.591605	0.194007
39	S	0.428835	0.569938	0.308148
40	C	0.441935	0.557069	0.096703
41	C	0.46367	0.535707	0.095981
42	C	0.474818	0.52475	0.264288
43	C	0.495302	0.504618	0.259384
44	C	0.505401	0.494691	0.085386
45	C	0.526006	0.47444	0.077936
46	C	0.536329	0.464292	0.904023
47	C	0.558065	0.44293	0.903299
48	C	0.570919	0.430294	0.057122
49	C	0.590805	0.41075	0
50	C	0.593204	0.408394	0.805992
51	S	0.571162	0.43006	0.691854
52	C	0.525181	0.475249	0.735716
53	C	0.504697	0.495381	0.740621
54	C	0.494598	0.505308	0.914619
55	C	0.473993	0.525559	0.922068
56	C	0.429082	0.569706	0.94288
57	H	0.393315	0.60485	0.274758
58	H	0.467919	0.531531	0.404202
59	H	0.503262	0.496795	0.393989
60	H	0.53393	0.466652	0.212557
61	H	0.566297	0.434835	0.204969
62	H	0.606683	0.395148	0.72524
63	H	0.53208	0.468468	0.595802
64	H	0.496737	0.503204	0.606016
65	H	0.466069	0.533347	0.787447
66	H	0.433705	0.565167	0.795032
67	C	0.410563	0.821301	0
68	C	0.408214	0.816586	0.194007
69	S	0.429828	0.859917	0.308148
70	C	0.442666	0.885661	0.096703
71	C	0.463976	0.928386	0.095981
72	C	0.474906	0.950301	0.264288
73	C	0.49499	0.990566	0.259384
74	C	0.504893	0.01042	0.085386
75	C	0.525095	0.050922	0.077936
76	C	0.535218	0.071217	0.904023
77	C	0.556528	0.113942	0.903299
78	C	0.569133	0.139212	0.057122
79	C	0.58863	0.178302	0
80	C	0.59098	0.183016	0.805992
81	S	0.569367	0.139686	0.691854
82	C	0.524287	0.049302	0.735716
83	C	0.504204	0.009037	0.740621
84	C	0.494301	0.989183	0.914619
85	C	0.474099	0.948681	0.922068
86	C	0.430059	0.860391	0.94288
87	H	0.395	0.790093	0.274758
88	H	0.468142	0.936739	0.404202
89	H	0.502794	0.006213	0.393989
90	H	0.532864	0.066499	0.212557
91	H	0.564604	0.130128	0.204969
92	H	0.604194	0.20951	0.72524
93	H	0.531052	0.062864	0.595802
94	H	0.4964	0.99339	0.606016
95	H	0.46633	0.933104	0.787447
96	H	0.434588	0.869475	0.795032
97	C	0.179641	0.588853	0
98	C	0.184391	0.591213	0.194007
99	S	0.140735	0.569549	0.308148
100	C	0.114798	0.556674	0.096703
101	C	0.071752	0.535311	0.095981
102	C	0.049674	0.524353	0.264288
103	C	0.009107	0.50422	0.259384
104	C	0.989104	0.494294	0.085386
105	C	0.948298	0.474042	0.077936
106	C	0.927851	0.463895	0.904023
107	C	0.884806	0.442532	0.903299
108	C	0.859346	0.429898	0.057122
109	C	0.819963	0.410352	0
110	C	0.815213	0.407994	0.805992
111	S	0.858869	0.429659	0.691854
112	C	0.94993	0.474853	0.735716
113	C	0.990497	0.494986	0.740621
114	C	0.0105	0.504912	0.914619
115	C	0.051306	0.525164	0.922068
116	C	0.140257	0.569306	0.94288
117	H	0.211083	0.604461	0.274758
118	H	0.063337	0.531134	0.404202
119	H	0.993342	0.496396	0.393989
120	H	0.932604	0.466253	0.212557
121	H	0.868498	0.434441	0.204969
122	H	0.788521	0.394746	0.72524
123	H	0.936267	0.468072	0.595802
124	H	0.006262	0.50281	0.606016
125	H	0.067	0.532953	0.787447
126	H	0.131106	0.564762	0.795032
