data_C105H54N6O6S18_2023-05-13_00:28:17
#******************************************
#
# CIF file created by Zeo++
# Zeo++ is an open source package to
# analyze microporous materials
#
#*******************************************

_cell_length_a		53.1452   
_cell_length_b		53.4436   
_cell_length_c		7   
_cell_angle_alpha		90   
_cell_angle_beta		90   
_cell_angle_gamma		119.756   

_symmetry_space_group_name_H-M		'P1'
_symmetry_Int_Tables_number		1
_symmetry_cell_setting		Monoclinic

loop_
_symmetry_equiv_pos_as_xyz
'+x,+y,+z'

loop_
_atom_site_label
_atom_site_type_symbol
_atom_site_fract_x
_atom_site_fract_y
_atom_site_fract_z
1	C	0.362498	0.672766	0.999995
2	O	0.388068	0.67725	0.999991
3	C	0.339382	0.642796	0.999998
4	C	0.343868	0.620705	0
5	N	0.37249	0.625871	0
6	C	0.309811	0.637476	3e-06
7	O	0.289036	0.611645	5e-06
8	C	0.30271	0.660525	6e-06
9	C	0.275498	0.654963	5e-06
10	N	0.253004	0.625573	0
11	C	0.326939	0.690255	4e-06
12	O	0.321296	0.710187	7e-06
13	C	0.356986	0.696911	0.999999
14	C	0.378345	0.724033	0.999998
15	N	0.374056	0.748109	0
16	H	0.326171	0.5992	1e-06
17	H	0.26976	0.671472	8e-06
18	H	0.399945	0.727906	0.999997
19	C	0.637502	0.327234	0.999995
20	O	0.611932	0.32275	0.999991
21	C	0.660618	0.357204	0.999998
22	C	0.656132	0.379295	0
23	N	0.62751	0.374129	0
24	C	0.690189	0.362524	3e-06
25	O	0.710964	0.388355	5e-06
26	C	0.69729	0.339475	6e-06
27	C	0.724502	0.345037	5e-06
28	N	0.746996	0.374427	0
29	C	0.673061	0.309745	4e-06
30	O	0.678704	0.289813	7e-06
31	C	0.643014	0.303089	0.999999
32	C	0.621655	0.275967	0.999998
33	N	0.625944	0.251891	0
34	H	0.673829	0.4008	1e-06
35	H	0.73024	0.328528	8e-06
36	H	0.600055	0.272094	0.999997
37	C	0.610043	0.391372	0
38	C	0.620782	0.380753	0.135946
39	S	0.613501	0.387909	0.360697
40	C	0.595805	0.405387	0.276074
41	C	0.583372	0.417642	0.404712
42	C	0.583387	0.417574	0.602217
43	C	0.569057	0.431718	0.682416
44	C	0.558192	0.442497	0.545657
45	C	0.542514	0.45799	0.574541
46	C	0.531642	0.46874	0.437909
47	C	0.517347	0.482866	0.518423
48	C	0.517246	0.48296	0.716419
49	C	0.504854	0.495203	0.84073
50	C	0.505578	0.494518	0.032656
51	C	0.490552	0.509356	0.117153
52	C	0.480805	0.518949	0.942803
53	C	0.465201	0.534346	0.936908
54	C	0.455742	0.543685	0.091149
55	C	0.440725	0.558503	0.037294
56	C	0.438714	0.560483	0.841571
57	C	0.42485	0.574163	0.740872
58	C	0.411078	0.587741	0.822109
59	C	0.399615	0.599056	0.683961
60	C	0.404706	0.594048	0.497999
61	C	0.396288	0.602364	0.322408
62	C	0.401421	0.59731	0.135939
63	C	0.389957	0.608628	0
64	C	0.376346	0.622053	0.081054
65	S	0.377439	0.62096	0.324666
66	S	0.423454	0.575557	0.496324
67	S	0.455309	0.544102	0.727935
68	C	0.489481	0.510364	0.787547
69	S	0.53497	0.465437	0.798864
70	S	0.565772	0.435064	0.321133
71	C	0.595757	0.405462	0.077908
72	H	0.632485	0.369206	0.115589
73	H	0.593191	0.407857	0.688402
74	H	0.567006	0.433703	0.834885
75	H	0.533655	0.466756	0.285421
76	H	0.507508	0.492594	0.432691
77	H	0.515315	0.484924	0.119733
78	H	0.472053	0.494378	0.204307
79	H	0.50557	0.527795	0.204164
80	H	0.459404	0.540074	0.238345
81	H	0.43188	0.567234	0.139882
82	H	0.409099	0.589682	0.974622
83	H	0.388147	0.610365	0.722131
84	H	0.412905	0.585982	0.098769
85	H	0.365842	0.632421	0.010623
86	H	0.485984	0.513792	0.640191
87	H	0.585897	0.415205	0.992582
88	C	0.60813	0.217108	0
89	C	0.61873	0.238328	0.135946
90	S	0.611587	0.223984	0.360697
91	C	0.59414	0.189037	0.276074
92	C	0.581908	0.164509	0.404712
93	C	0.581976	0.164592	0.602217
94	C	0.567858	0.136302	0.682416
95	C	0.557098	0.114799	0.545657
96	C	0.541633	0.083829	0.574541
97	C	0.530902	0.062346	0.437909
98	C	0.516801	0.034108	0.518423
99	C	0.516708	0.033915	0.716419
100	C	0.504487	0.00944	0.84073
101	C	0.505171	0.010839	0.032656
102	C	0.490359	0.981169	0.117153
103	C	0.480784	0.961954	0.942803
104	C	0.465415	0.931154	0.936908
105	C	0.456093	0.912477	0.091149
106	C	0.441302	0.882835	0.037294
107	C	0.439326	0.878871	0.841571
108	C	0.42567	0.851505	0.740872
109	C	0.412117	0.824332	0.822109
110	C	0.400822	0.8017	0.683961
111	C	0.405821	0.811734	0.497999
112	C	0.39752	0.795109	0.322408
113	C	0.402565	0.805229	0.135939
114	C	0.391267	0.782595	0
115	C	0.377867	0.755735	0.081054
116	S	0.378957	0.757905	0.324666
117	S	0.424279	0.848732	0.496324
118	S	0.455676	0.911633	0.727935
119	C	0.489353	0.979103	0.787547
120	S	0.534199	0.068934	0.798864
121	S	0.564517	0.129713	0.321133
122	C	0.594065	0.188915	0.077908
123	H	0.630256	0.261427	0.115589
124	H	0.591675	0.183986	0.688402
125	H	0.565876	0.132292	0.834885
126	H	0.532883	0.066317	0.285421
127	H	0.507091	0.014669	0.432691
128	H	0.514747	0.030045	0.119733
129	H	0.505475	0.977722	0.204307
130	H	0.471788	0.977717	0.204164
131	H	0.459697	0.919704	0.238345
132	H	0.432586	0.865372	0.139882
133	H	0.410179	0.820436	0.974622
134	H	0.389534	0.779071	0.722131
135	H	0.413872	0.827894	0.098769
136	H	0.367517	0.734996	0.010623
137	H	0.485931	0.972223	0.640191
138	H	0.58434	0.169439	0.992582
139	C	0.781377	0.391074	0
140	C	0.760038	0.380472	0.135946
141	S	0.774462	0.38766	0.360697
142	C	0.809604	0.405129	0.276074
143	C	0.83427	0.417402	0.404712
144	C	0.834187	0.417388	0.602217
145	C	0.862635	0.431533	0.682416
146	C	0.884259	0.442258	0.545657
147	C	0.915402	0.457734	0.574541
148	C	0.937006	0.468467	0.437909
149	C	0.965402	0.482578	0.518423
150	C	0.965597	0.482678	0.716419
151	C	0.990209	0.49491	0.84073
152	C	0.988802	0.494196	0.032656
153	C	0.018639	0.509028	0.117153
154	C	0.037962	0.51865	0.942803
155	C	0.068934	0.534054	0.936908
156	C	0.087715	0.543391	0.091149
157	C	0.117523	0.558215	0.037294
158	C	0.12151	0.5602	0.841571
159	C	0.149029	0.573886	0.740872
160	C	0.176355	0.587481	0.822109
161	C	0.199113	0.598797	0.683961
162	C	0.189023	0.593771	0.497999
163	C	0.205742	0.602081	0.322408
164	C	0.195565	0.597014	0.135939
165	C	0.218326	0.60833	0
166	C	0.245337	0.621766	0.081054
167	S	0.243154	0.620688	0.324666
168	S	0.151818	0.575264	0.496324
169	S	0.088564	0.543818	0.727935
170	C	0.020716	0.510085	0.787547
171	S	0.930381	0.465182	0.798864
172	S	0.869261	0.434776	0.321133
173	C	0.809728	0.405176	0.077908
174	H	0.736809	0.368921	0.115589
175	H	0.814684	0.40771	0.688402
176	H	0.866668	0.433558	0.834885
177	H	0.933012	0.46648	0.285421
178	H	0.984951	0.49229	0.432691
179	H	0.969488	0.484584	0.119733
180	H	0.022022	0.527453	0.204307
181	H	0.022192	0.49404	0.204164
182	H	0.080448	0.539776	0.238345
183	H	0.135084	0.566947	0.139882
184	H	0.180272	0.589435	0.974622
185	H	0.221869	0.610117	0.722131
186	H	0.172773	0.585677	0.098769
187	H	0.266191	0.632136	0.010623
188	H	0.027634	0.513538	0.640191
189	H	0.829313	0.414909	0.992582
