data_C114H48N12O6S24_2023-05-12_16:44:42
#******************************************
#
# CIF file created by Zeo++
# Zeo++ is an open source package to
# analyze microporous materials
#
#*******************************************

_cell_length_a		64.6163   
_cell_length_b		64.9147   
_cell_length_c		7   
_cell_angle_alpha		90   
_cell_angle_beta		90   
_cell_angle_gamma		119.799   

_symmetry_space_group_name_H-M		'P1'
_symmetry_Int_Tables_number		1
_symmetry_cell_setting		Monoclinic

loop_
_symmetry_equiv_pos_as_xyz
'+x,+y,+z'

loop_
_atom_site_label
_atom_site_type_symbol
_atom_site_fract_x
_atom_site_fract_y
_atom_site_fract_z
1	C	0.357325	0.67169	0.999995
2	O	0.378359	0.675384	0.999991
3	C	0.338291	0.647005	0.999998
4	C	0.341965	0.628811	0
5	N	0.365509	0.633065	0
6	C	0.313966	0.642624	3e-06
7	O	0.296861	0.621348	5e-06
8	C	0.308142	0.661608	6e-06
9	C	0.285757	0.657027	5e-06
10	N	0.267236	0.63282	0
11	C	0.328091	0.686095	4e-06
12	O	0.323464	0.702512	7e-06
13	C	0.352809	0.691577	0.999999
14	C	0.370395	0.713916	0.999998
15	N	0.366885	0.733747	0
16	H	0.327394	0.611098	1e-06
17	H	0.28105	0.670624	8e-06
18	H	0.388164	0.717106	0.999997
19	C	0.642675	0.32831	0.999995
20	O	0.621641	0.324616	0.999991
21	C	0.661709	0.352995	0.999998
22	C	0.658035	0.371189	0
23	N	0.634491	0.366935	0
24	C	0.686034	0.357376	3e-06
25	O	0.703139	0.378652	5e-06
26	C	0.691858	0.338392	6e-06
27	C	0.714243	0.342973	5e-06
28	N	0.732764	0.36718	0
29	C	0.671909	0.313905	4e-06
30	O	0.676536	0.297488	7e-06
31	C	0.647191	0.308423	0.999999
32	C	0.629605	0.286084	0.999998
33	N	0.633115	0.266253	0
34	H	0.672606	0.388902	1e-06
35	H	0.71895	0.329376	8e-06
36	H	0.611836	0.282894	0.999997
37	C	0.620137	0.381136	0
38	C	0.622113	0.387136	0.189617
39	C	0.607059	0.396706	0.23693
40	C	0.594385	0.397516	0.080961
41	C	0.576273	0.407119	0.087446
42	C	0.563844	0.407753	0.930023
43	S	0.545611	0.419038	0.982372
44	C	0.554082	0.423438	0.218308
45	C	0.544552	0.433148	0.356707
46	C	0.544473	0.430804	0.553097
47	C	0.533904	0.442637	0.650039
48	C	0.526079	0.453944	0.526396
49	C	0.514551	0.467596	0.570867
50	N	0.507614	0.477242	0.438153
51	C	0.497156	0.489198	0.52001
52	C	0.487713	0.501489	0.422235
53	C	0.477612	0.512847	0.52295
54	C	0.476688	0.512299	0.721732
55	C	0.486123	0.499996	0.819517
56	C	0.496201	0.488617	0.718764
57	S	0.508845	0.472495	0.801666
58	N	0.466263	0.524298	0.803746
59	C	0.459191	0.533795	0.67049
60	C	0.447632	0.54725	0.72067
61	C	0.443928	0.552558	0.904291
62	C	0.431925	0.565981	0.909286
63	C	0.426513	0.570754	0.729254
64	C	0.414326	0.58371	0.679687
65	C	0.409267	0.588845	0.499226
66	C	0.396829	0.601903	0.502527
67	C	0.388594	0.610244	0.320564
68	C	0.376527	0.622824	0.324795
69	C	0.37142	0.627858	0.137419
70	C	0.379863	0.618864	0
71	S	0.393633	0.604662	0.091207
72	C	0.392765	0.606441	0.686559
73	S	0.403808	0.595091	0.852008
74	S	0.436422	0.558789	0.557391
75	S	0.46489	0.528884	0.440004
76	S	0.531829	0.449921	0.294078
77	C	0.570588	0.416155	0.253266
78	S	0.600774	0.386764	0.879574
79	H	0.633594	0.384892	0.289977
80	H	0.605826	0.402609	0.378926
81	H	0.564379	0.402172	0.785471
82	H	0.551506	0.420884	0.62613
83	H	0.532226	0.442626	0.804044
84	H	0.488378	0.502014	0.267103
85	H	0.485454	0.499458	0.974608
86	H	0.449609	0.546985	0.03034
87	H	0.427523	0.571709	0.040947
88	H	0.414251	0.583416	0.368867
89	H	0.371448	0.628291	0.454355
90	H	0.362105	0.637503	0.10743
91	H	0.383859	0.615855	0.734612
92	H	0.578375	0.417417	0.392679
93	C	0.618439	0.237605	0
94	C	0.612416	0.233592	0.189617
95	C	0.602882	0.209107	0.23693
96	C	0.602121	0.195709	0.080961
97	C	0.592566	0.168152	0.087446
98	C	0.591981	0.155174	0.930023
99	S	0.58074	0.125821	0.982372
100	C	0.576295	0.129856	0.218308
101	C	0.566598	0.110717	0.356707
102	C	0.568949	0.112973	0.553097
103	C	0.557127	0.090689	0.650039
104	C	0.545823	0.071655	0.526396
105	C	0.532181	0.046606	0.570867
106	N	0.522539	0.030108	0.438153
107	C	0.510594	0.00781	0.52001
108	C	0.498309	0.986188	0.422235
109	C	0.486963	0.964842	0.52295
110	C	0.487515	0.96447	0.721732
111	C	0.499812	0.986096	0.819517
112	C	0.51118	0.00744	0.718764
113	S	0.527293	0.036058	0.801666
114	N	0.475528	0.942164	0.803746
115	C	0.466034	0.925679	0.67049
116	C	0.452591	0.900796	0.72067
117	C	0.447285	0.89183	0.904291
118	C	0.433875	0.866538	0.909286
119	C	0.429111	0.856407	0.729254
120	C	0.416171	0.831398	0.679687
121	C	0.411044	0.821257	0.499226
122	C	0.398002	0.795897	0.502527
123	C	0.389672	0.779407	0.320564
124	C	0.377108	0.754891	0.324795
125	C	0.372082	0.744805	0.137419
126	C	0.381065	0.76215	0
127	S	0.395248	0.789973	0.091207
128	C	0.393468	0.78734	0.686559
129	S	0.404803	0.809613	0.852008
130	S	0.441067	0.878167	0.557391
131	S	0.470935	0.936231	0.440004
132	S	0.549833	0.081373	0.294078
133	C	0.58353	0.153506	0.253266
134	S	0.612876	0.212766	0.879574
135	H	0.614619	0.247232	0.289977
136	H	0.596968	0.202002	0.378926
137	H	0.597574	0.161264	0.785471
138	H	0.578865	0.12984	0.62613
139	H	0.557145	0.089033	0.804044
140	H	0.49778	0.986327	0.267103
141	H	0.500354	0.985967	0.974608
142	H	0.452849	0.903024	0.03034
143	H	0.42815	0.856459	0.040947
144	H	0.416466	0.831615	0.368867
145	H	0.371648	0.744402	0.454355
146	H	0.362449	0.725945	0.10743
147	H	0.384066	0.769116	0.734612
148	H	0.582233	0.159984	0.392679
149	C	0.761054	0.380891	0
150	C	0.765101	0.378904	0.189617
151	C	0.789688	0.393819	0.23693
152	C	0.803124	0.406407	0.080961
153	C	0.830792	0.424361	0.087446
154	C	0.843805	0.436705	0.930023
155	S	0.87328	0.454772	0.982372
156	C	0.869253	0.446338	0.218308
157	C	0.88848	0.455767	0.356707
158	C	0.886209	0.455855	0.553097
159	C	0.908599	0.466306	0.650039
160	C	0.927728	0.474034	0.526396
161	C	0.952897	0.48543	0.570867
162	N	0.969477	0.492283	0.438153
163	C	0.99188	0.502624	0.52001
164	C	0.013608	0.511955	0.422235
165	C	0.035055	0.521943	0.52295
166	C	0.035426	0.522863	0.721732
167	C	0.013695	0.51354	0.819517
168	C	0.992249	0.503575	0.718764
169	S	0.963492	0.491079	0.801666
170	N	0.057839	0.53317	0.803746
171	C	0.074405	0.540158	0.67049
172	C	0.099406	0.551586	0.72067
173	C	0.108417	0.555244	0.904291
174	C	0.133829	0.567114	0.909286
175	C	0.144006	0.572471	0.729254
176	C	0.169132	0.584525	0.679687
177	C	0.179319	0.58953	0.499226
178	C	0.204798	0.601832	0.502527
179	C	0.221364	0.60998	0.320564
180	C	0.245995	0.621917	0.324795
181	C	0.256128	0.626969	0.137419
182	C	0.238701	0.618618	0
183	S	0.210749	0.604997	0.091207
184	C	0.213396	0.605852	0.686559
185	S	0.191019	0.594927	0.852008
186	S	0.122141	0.562676	0.557391
187	S	0.063805	0.534516	0.440004
188	S	0.917968	0.468338	0.294078
189	C	0.845512	0.429971	0.253266
190	S	0.78598	0.400103	0.879574
191	H	0.751417	0.367507	0.289977
192	H	0.796836	0.39502	0.378926
193	H	0.837677	0.436196	0.785471
194	H	0.869259	0.448908	0.62613
195	H	0.910259	0.467973	0.804044
196	H	0.013471	0.511291	0.267103
197	H	0.013822	0.514207	0.974608
198	H	0.097172	0.549623	0.03034
199	H	0.143957	0.571464	0.040947
200	H	0.168913	0.584601	0.368867
201	H	0.256533	0.626939	0.454355
202	H	0.275076	0.636184	0.10743
203	H	0.231705	0.614661	0.734612
204	H	0.839022	0.42223	0.392679
