data_C84H48N12O6_2023-05-28_03:24:36
#******************************************
#
# CIF file created by Zeo++
# Zeo++ is an open source package to
# analyze microporous materials
#
#*******************************************

_cell_length_a		43.0525   
_cell_length_b		43.3511   
_cell_length_c		7   
_cell_angle_alpha		90   
_cell_angle_beta		90   
_cell_angle_gamma		119.699   

_symmetry_space_group_name_H-M		'P1'
_symmetry_Int_Tables_number		1
_symmetry_cell_setting		Monoclinic

loop_
_symmetry_equiv_pos_as_xyz
'+x,+y,+z'

loop_
_atom_site_label
_atom_site_type_symbol
_atom_site_fract_x
_atom_site_fract_y
_atom_site_fract_z
1	C	0.369327	0.674181	0.999995
2	O	0.400884	0.679707	0.999991
3	C	0.340833	0.637255	0.999998
4	C	0.346402	0.610037	0
5	N	0.381727	0.616402	0
6	C	0.304338	0.630701	3e-06
7	O	0.278729	0.598874	5e-06
8	C	0.29554	0.659099	6e-06
9	C	0.261957	0.652246	5e-06
10	N	0.234231	0.616035	0
11	C	0.325406	0.69573	4e-06
12	O	0.318412	0.720288	7e-06
13	C	0.362487	0.703931	0.999999
14	C	0.388815	0.737349	0.999998
15	N	0.383486	0.767013	0
16	H	0.324588	0.58354	1e-06
17	H	0.25485	0.672587	8e-06
18	H	0.415474	0.742121	0.999997
19	C	0.630673	0.325819	0.999995
20	O	0.599116	0.320293	0.999991
21	C	0.659167	0.362745	0.999998
22	C	0.653598	0.389963	0
23	N	0.618273	0.383598	0
24	C	0.695662	0.369299	3e-06
25	O	0.721271	0.401126	5e-06
26	C	0.70446	0.340901	6e-06
27	C	0.738043	0.347754	5e-06
28	N	0.765769	0.383965	0
29	C	0.674594	0.30427	4e-06
30	O	0.681588	0.279712	7e-06
31	C	0.637513	0.296069	0.999999
32	C	0.611185	0.262651	0.999998
33	N	0.616514	0.232987	0
34	H	0.675412	0.41646	1e-06
35	H	0.74515	0.327413	8e-06
36	H	0.584526	0.257879	0.999997
37	C	0.596687	0.404843	0
38	C	0.588261	0.429058	0.060496
39	C	0.559306	0.42705	0.944867
40	C	0.541867	0.448545	0.964941
41	C	0.532393	0.461761	0.808936
42	N	0.51629	0.481758	0.820437
43	C	0.508551	0.490063	0.994243
44	C	0.517406	0.477733	0.161485
45	C	0.534081	0.457025	0.144083
46	C	0.509695	0.485891	0.342339
47	C	0.493213	0.506316	0.359625
48	C	0.48428	0.518784	0.196225
49	C	0.467571	0.539457	0.213826
50	C	0.458446	0.552077	0.052432
51	C	0.440829	0.573508	0.065225
52	C	0.449431	0.599865	0.192418
53	C	0.426292	0.616482	0.163568
54	C	0.403313	0.595157	0
55	C	0.411995	0.570795	0.945779
56	C	0.466723	0.542986	0.877675
57	N	0.482791	0.523127	0.855478
58	C	0.491808	0.510787	0.011786
59	C	0.550372	0.401266	0.813578
60	C	0.573409	0.384369	0.835395
61	H	0.600981	0.447654	0.175913
62	H	0.537744	0.456861	0.663621
63	H	0.540733	0.447206	0.271856
64	H	0.516449	0.4764	0.471038
65	H	0.487401	0.5124	0.501503
66	H	0.461368	0.545448	0.354974
67	H	0.470167	0.608745	0.299554
68	H	0.410505	0.61351	0.291816
69	H	0.442601	0.64462	0.127014
70	H	0.399527	0.551669	0.832275
71	H	0.4608	0.551766	0.743999
72	H	0.529487	0.392954	0.707564
73	H	0.588976	0.387891	0.705513
74	H	0.557051	0.356076	0.86837
75	C	0.594572	0.190131	0
76	C	0.570313	0.157719	0.060496
77	C	0.572504	0.131046	0.944867
78	C	0.55103	0.092414	0.964941
79	C	0.537821	0.069898	0.808936
80	N	0.517842	0.034078	0.820437
81	C	0.509552	0.018161	0.994243
82	C	0.521876	0.039183	0.161485
83	C	0.542564	0.076276	0.144083
84	C	0.513734	0.02344	0.342339
85	C	0.493328	0.986819	0.359625
86	C	0.480866	0.965582	0.196225
87	C	0.460213	0.92849	0.213826
88	C	0.447599	0.906911	0.052432
89	C	0.42619	0.868166	0.065225
90	C	0.399678	0.850486	0.192418
91	C	0.383136	0.811059	0.163568
92	C	0.404684	0.809503	0
93	C	0.429089	0.842314	0.945779
94	C	0.456675	0.924142	0.877675
95	N	0.476514	0.959791	0.855478
96	C	0.488848	0.980984	0.011786
97	C	0.598443	0.147828	0.813578
98	C	0.615267	0.187433	0.835395
99	H	0.551568	0.15183	0.175913
100	H	0.542707	0.080066	0.663621
101	H	0.552382	0.092623	0.271856
102	H	0.523221	0.039561	0.471038
103	H	0.487256	0.975017	0.501503
104	H	0.454235	0.916393	0.354974
105	H	0.390638	0.862191	0.299554
106	H	0.386216	0.798382	0.291816
107	H	0.35479	0.799239	0.127014
108	H	0.448364	0.848979	0.832275
109	H	0.447896	0.909551	0.743999
110	H	0.606914	0.135412	0.707564
111	H	0.611636	0.199345	0.705513
112	H	0.643769	0.199359	0.86837
113	C	0.808186	0.404476	0
114	C	0.84087	0.412672	0.060496
115	C	0.867635	0.441354	0.944867
116	C	0.906548	0.458491	0.964941
117	C	0.929231	0.467791	0.808936
118	N	0.965312	0.483614	0.820437
119	C	0.981341	0.491226	0.994243
120	C	0.960163	0.482534	0.161485
121	C	0.922799	0.466148	0.144083
122	C	0.976016	0.490119	0.342339
123	C	0.012903	0.506314	0.359625
124	C	0.034299	0.515084	0.196225
125	C	0.07166	0.531503	0.213826
126	C	0.0934	0.540462	0.052432
127	C	0.132426	0.557776	0.065225
128	C	0.150335	0.549099	0.192418
129	C	0.190016	0.571909	0.163568
130	C	0.191448	0.59479	0
131	C	0.158361	0.586341	0.945779
132	C	0.076047	0.532321	0.877675
133	N	0.040139	0.516532	0.855478
134	C	0.018788	0.507679	0.011786
135	C	0.85063	0.450355	0.813578
136	C	0.810769	0.427648	0.835395
137	H	0.846896	0.399965	0.175913
138	H	0.918994	0.462522	0.663621
139	H	0.90633	0.459621	0.271856
140	H	0.959775	0.483489	0.471038
141	H	0.024788	0.512032	0.501503
142	H	0.083841	0.537609	0.354974
143	H	0.138639	0.528514	0.299554
144	H	0.202724	0.587558	0.291816
145	H	0.202054	0.555591	0.127014
146	H	0.151553	0.598802	0.832275
147	H	0.090748	0.538133	0.743999
148	H	0.863043	0.471084	0.707564
149	H	0.798832	0.412213	0.705513
150	H	0.798625	0.444015	0.86837
