data_C66H36N12O6S3_2023-05-30_05:56:06
#******************************************
#
# CIF file created by Zeo++
# Zeo++ is an open source package to
# analyze microporous materials
#
#*******************************************

_cell_length_a		36.4158   
_cell_length_b		36.7144   
_cell_length_c		7   
_cell_angle_alpha		90   
_cell_angle_beta		90   
_cell_angle_gamma		119.645   

_symmetry_space_group_name_H-M		'P1'
_symmetry_Int_Tables_number		1
_symmetry_cell_setting		Monoclinic

loop_
_symmetry_equiv_pos_as_xyz
'+x,+y,+z'

loop_
_atom_site_label
_atom_site_type_symbol
_atom_site_fract_x
_atom_site_fract_y
_atom_site_fract_z
1	C	0.375877	0.675535	0.999995
2	O	0.413178	0.682056	0.999991
3	C	0.342238	0.631957	0.999998
4	C	0.348857	0.599836	0
5	N	0.390612	0.607348	0
6	C	0.299101	0.624222	3e-06
7	O	0.268866	0.586662	5e-06
8	C	0.288662	0.657736	6e-06
9	C	0.248967	0.649648	5e-06
10	N	0.216236	0.606914	0
11	C	0.323924	0.700966	4e-06
12	O	0.315623	0.729947	7e-06
13	C	0.367752	0.710643	0.999999
14	C	0.398834	0.75008	0.999998
15	N	0.392496	0.785088	0
16	H	0.323102	0.568567	1e-06
17	H	0.240538	0.673653	8e-06
18	H	0.430346	0.755712	0.999997
19	C	0.624123	0.324465	0.999995
20	O	0.586822	0.317944	0.999991
21	C	0.657762	0.368043	0.999998
22	C	0.651143	0.400164	0
23	N	0.609388	0.392652	0
24	C	0.700899	0.375778	3e-06
25	O	0.731134	0.413338	5e-06
26	C	0.711338	0.342264	6e-06
27	C	0.751033	0.350352	5e-06
28	N	0.783764	0.393086	0
29	C	0.676076	0.299034	4e-06
30	O	0.684377	0.270053	7e-06
31	C	0.632248	0.289357	0.999999
32	C	0.601166	0.24992	0.999998
33	N	0.607504	0.214912	0
34	H	0.676898	0.431433	1e-06
35	H	0.759462	0.326347	8e-06
36	H	0.569654	0.244288	0.999997
37	C	0.41616	0.582276	0
38	C	0.420554	0.577964	0.813201
39	C	0.443408	0.555563	0.787766
40	C	0.453331	0.54584	0.958756
41	C	0.476483	0.523148	0.993629
42	C	0.491756	0.508198	0.845183
43	C	0.514154	0.486242	0.874282
44	C	0.524073	0.476505	0.055432
45	C	0.547436	0.453595	0.077509
46	C	0.559516	0.441961	0.23745
47	C	0.581873	0.419927	0.189909
48	C	0.58384	0.417724	0
49	C	0.562259	0.4388	0.90669
50	C	0.509575	0.490688	0.213472
51	N	0.514573	0.485749	0.400435
52	S	0.492068	0.507784	0.522977
53	N	0.474471	0.525067	0.347781
54	C	0.485341	0.514441	0.18182
55	C	0.436445	0.562393	0.114262
56	H	0.409124	0.589165	0.69779
57	H	0.450644	0.548467	0.647826
58	H	0.486384	0.513481	0.697051
59	H	0.524005	0.476604	0.7457
60	H	0.554186	0.447413	0.383783
61	H	0.594652	0.407515	0.293952
62	H	0.584478	0.465287	0.818826
63	H	0.53549	0.416548	0.819744
64	H	0.412868	0.536958	0.202718
65	H	0.462002	0.585886	0.202719
66	C	0.417501	0.835231	0
67	C	0.421802	0.843856	0.813201
68	C	0.444144	0.888685	0.787766
69	C	0.453841	0.908146	0.958756
70	C	0.476473	0.953558	0.993629
71	C	0.491383	0.983496	0.845183
72	C	0.51328	0.027432	0.874282
73	C	0.522991	0.046904	0.055432
74	C	0.545841	0.092741	0.077509
75	C	0.557443	0.116232	0.23745
76	C	0.579419	0.160204	0.189909
77	C	0.581618	0.164336	0
78	C	0.560598	0.12208	0.90669
79	C	0.508847	0.018493	0.213472
80	N	0.513773	0.028337	0.400435
81	S	0.491796	0.984216	0.522977
82	N	0.474558	0.949663	0.347781
83	C	0.485156	0.970957	0.18182
84	C	0.437331	0.875021	0.114262
85	H	0.41063	0.821438	0.69779
86	H	0.45122	0.902882	0.647826
87	H	0.486114	0.972942	0.697051
88	H	0.522893	0.046739	0.7457
89	H	0.552003	0.10555	0.383783
90	H	0.591797	0.185158	0.293952
91	H	0.53383	0.117743	0.818826
92	H	0.583144	0.117717	0.819744
93	H	0.463052	0.876973	0.202718
94	H	0.413548	0.876956	0.202719
95	C	0.165683	0.581843	0
96	C	0.156988	0.577531	0.813201
97	C	0.111792	0.555103	0.787766
98	C	0.092172	0.545365	0.958756
99	C	0.046388	0.522644	0.993629
100	C	0.016205	0.507656	0.845183
101	C	0.97191	0.485676	0.874282
102	C	0.952279	0.475942	0.055432
103	C	0.906067	0.453015	0.077509
104	C	0.882385	0.441158	0.23745
105	C	0.838052	0.419219	0.189909
106	C	0.833885	0.41729	0
107	C	0.876487	0.43847	0.90669
108	C	0.980922	0.49017	0.213472
109	N	0.970998	0.485265	0.400435
110	S	0.015479	0.507351	0.522977
111	N	0.050315	0.52462	0.347781
112	C	0.028846	0.513952	0.18182
113	C	0.125568	0.561936	0.114262
114	H	0.179589	0.588748	0.69779
115	H	0.097479	0.548001	0.647826
116	H	0.026846	0.512928	0.697051
117	H	0.952446	0.476008	0.7457
118	H	0.893155	0.446387	0.383783
119	H	0.812895	0.406677	0.293952
120	H	0.881035	0.416321	0.818826
121	H	0.880709	0.465085	0.819744
122	H	0.123423	0.58542	0.202718
123	H	0.123794	0.536509	0.202719
