data_C120H60N12O6S18_2023-05-15_09:51:31
#******************************************
#
# CIF file created by Zeo++
# Zeo++ is an open source package to
# analyze microporous materials
#
#*******************************************

_cell_length_a		62.2412   
_cell_length_b		62.5396   
_cell_length_c		7   
_cell_angle_alpha		90   
_cell_angle_beta		90   
_cell_angle_gamma		119.792   

_symmetry_space_group_name_H-M		'P1'
_symmetry_Int_Tables_number		1
_symmetry_cell_setting		Monoclinic

loop_
_symmetry_equiv_pos_as_xyz
'+x,+y,+z'

loop_
_atom_site_label
_atom_site_type_symbol
_atom_site_fract_x
_atom_site_fract_y
_atom_site_fract_z
1	C	0.35824	0.67188	0.999995
2	O	0.380076	0.675714	0.999991
3	C	0.338483	0.64626	0.999998
4	C	0.3423	0.627376	0
5	N	0.366743	0.631792	0
6	C	0.313231	0.641713	3e-06
7	O	0.295476	0.619631	5e-06
8	C	0.307182	0.661416	6e-06
9	C	0.283943	0.656661	5e-06
10	N	0.264719	0.631537	0
11	C	0.327888	0.686832	4e-06
12	O	0.323082	0.70387	7e-06
13	C	0.353548	0.692521	0.999999
14	C	0.371802	0.715707	0.999998
15	N	0.368154	0.736289	0
16	H	0.327177	0.608992	1e-06
17	H	0.279054	0.670774	8e-06
18	H	0.390248	0.719018	0.999997
19	C	0.64176	0.32812	0.999995
20	O	0.619924	0.324286	0.999991
21	C	0.661517	0.35374	0.999998
22	C	0.6577	0.372624	0
23	N	0.633257	0.368208	0
24	C	0.686769	0.358287	3e-06
25	O	0.704524	0.380369	5e-06
26	C	0.692818	0.338584	6e-06
27	C	0.716057	0.343339	5e-06
28	N	0.735281	0.368463	0
29	C	0.672112	0.313168	4e-06
30	O	0.676918	0.29613	7e-06
31	C	0.646452	0.307479	0.999999
32	C	0.628198	0.284293	0.999998
33	N	0.631846	0.263711	0
34	H	0.672823	0.391008	1e-06
35	H	0.720946	0.329226	8e-06
36	H	0.609752	0.280982	0.999997
37	C	0.618354	0.382948	0
38	C	0.609601	0.3928	0.867021
39	S	0.592076	0.403603	0.972085
40	C	0.596269	0.395139	0.197345
41	C	0.585465	0.399136	0.367522
42	C	0.581604	0.387082	0.540505
43	C	0.570891	0.395491	0.68096
44	C	0.566667	0.413852	0.613566
45	C	0.55636	0.426471	0.720286
46	C	0.556752	0.429223	0.916416
47	C	0.544861	0.442524	0.977502
48	C	0.535555	0.449758	0.827098
49	C	0.522024	0.463408	0.832817
50	C	0.504897	0.459156	0.977234
51	C	0.492335	0.472473	0.981605
52	C	0.497019	0.490124	0.841365
53	C	0.48429	0.504843	0.838701
54	C	0.488628	0.522151	0.696274
55	C	0.47618	0.535583	0.700965
56	C	0.459394	0.531658	0.847363
57	C	0.445955	0.545341	0.861669
58	C	0.440585	0.554546	0.022962
59	C	0.426793	0.566599	0.98086
60	C	0.421783	0.566431	0.78813
61	C	0.408089	0.576933	0.69942
62	C	0.391814	0.582682	0.788967
63	C	0.381493	0.593042	0.661974
64	C	0.390019	0.595178	0.476596
65	C	0.383631	0.60484	0.310969
66	C	0.391826	0.606512	0.124365
67	C	0.381646	0.617052	0
68	C	0.365977	0.623277	0.089809
69	S	0.363545	0.6163	0.327593
70	S	0.410539	0.584412	0.461679
71	S	0.433877	0.55132	0.661912
72	C	0.456182	0.514076	0.983394
73	N	0.468032	0.500786	0.983011
74	N	0.513718	0.494615	0.699856
75	C	0.525619	0.481363	0.699046
76	S	0.541191	0.439941	0.614096
77	S	0.57597	0.42059	0.380096
78	C	0.61081	0.384087	0.188933
79	H	0.612525	0.394261	0.714217
80	H	0.586083	0.37267	0.5668
81	H	0.566398	0.38813	0.824642
82	H	0.565383	0.422238	0.013398
83	H	0.543462	0.446733	0.125541
84	H	0.5009	0.445356	0.086762
85	H	0.47895	0.468976	0.093981
86	H	0.501671	0.525305	0.58178
87	H	0.480005	0.549155	0.589818
88	H	0.446432	0.552979	0.165651
89	H	0.421039	0.575148	0.088629
90	H	0.387205	0.579535	0.939372
91	H	0.368339	0.598593	0.707203
92	H	0.404574	0.600438	0.07911
93	H	0.355848	0.631531	0.028859
94	H	0.443332	0.509747	0.101613
95	H	0.538837	0.486144	0.582936
96	H	0.615925	0.377322	0.313337
97	C	0.616614	0.233977	0
98	C	0.606772	0.215474	0.867021
99	S	0.596014	0.187312	0.972085
100	C	0.604483	0.199903	0.197345
101	C	0.600521	0.185194	0.367522
102	C	0.612623	0.193362	0.540505
103	C	0.604236	0.174349	0.68096
104	C	0.585843	0.15187	0.613566
105	C	0.573233	0.129067	0.720286
106	C	0.570473	0.126716	0.916416
107	C	0.557185	0.101661	0.977502
108	C	0.549971	0.085216	0.827098
109	C	0.536341	0.058185	0.832817
110	C	0.540676	0.045409	0.977234
111	C	0.527376	0.019673	0.981605
112	C	0.509658	0.006747	0.841365
113	C	0.494953	0.979447	0.838701
114	C	0.47758	0.96652	0.696274
115	C	0.464164	0.940783	0.700965
116	C	0.468169	0.928019	0.847363
117	C	0.454507	0.901047	0.861669
118	C	0.445299	0.886547	0.022962
119	C	0.433272	0.860848	0.98086
120	C	0.433461	0.856039	0.78813
121	C	0.422988	0.831981	0.69942
122	C	0.417292	0.810093	0.788967
123	C	0.406947	0.789525	0.661974
124	C	0.404769	0.795866	0.476596
125	C	0.395108	0.779901	0.310969
126	C	0.393397	0.786374	0.124365
127	C	0.382872	0.765769	0
128	C	0.376695	0.744007	0.089809
129	S	0.383702	0.74854	0.327593
130	S	0.415479	0.826966	0.461679
131	S	0.448562	0.883098	0.661912
132	C	0.485813	0.942339	0.983394
133	N	0.499088	0.967341	0.983011
134	N	0.505085	0.018859	0.699856
135	C	0.518323	0.043876	0.699046
136	S	0.559791	0.100588	0.614096
137	S	0.579048	0.1544	0.380096
138	C	0.615504	0.225351	0.188933
139	H	0.605295	0.216922	0.714217
140	H	0.627055	0.212162	0.5668
141	H	0.611636	0.177217	0.824642
142	H	0.57744	0.142244	0.013398
143	H	0.552972	0.096081	0.125541
144	H	0.55453	0.055181	0.086762
145	H	0.530939	0.009861	0.093981
146	H	0.474363	0.976334	0.58178
147	H	0.450539	0.931066	0.589818
148	H	0.446846	0.893915	0.165651
149	H	0.424723	0.846619	0.088629
150	H	0.420466	0.808649	0.939372
151	H	0.401436	0.770934	0.707203
152	H	0.399434	0.805084	0.07911
153	H	0.368462	0.725729	0.028859
154	H	0.490207	0.933887	0.101613
155	H	0.513474	0.052242	0.582936
156	H	0.622266	0.237168	0.313337
157	C	0.764648	0.382693	0
158	C	0.783242	0.391344	0.867021
159	S	0.811525	0.408704	0.972085
160	C	0.798864	0.404576	0.197345
161	C	0.81363	0.415288	0.367522
162	C	0.805389	0.419174	0.540505
163	C	0.824489	0.429778	0.68096
164	C	0.847105	0.433896	0.613566
165	C	0.870023	0.44408	0.720286
166	C	0.872391	0.443679	0.916416
167	C	0.89757	0.455433	0.977502
168	C	0.914089	0.464644	0.827098
169	C	0.94125	0.478025	0.832817
170	C	0.954043	0.495053	0.977234
171	C	0.979904	0.507473	0.981605
172	C	0.992939	0.502747	0.841365
173	C	0.020374	0.515328	0.838701
174	C	0.033408	0.510947	0.696274
175	C	0.059271	0.523253	0.700965
176	C	0.072052	0.53994	0.847363
177	C	0.099155	0.55323	0.861669
178	C	0.113732	0.558524	0.022962
179	C	0.139551	0.572171	0.98086
180	C	0.144372	0.577148	0.78813
181	C	0.168539	0.590704	0.69942
182	C	0.190509	0.606843	0.788967
183	C	0.211176	0.617051	0.661974
184	C	0.204827	0.608573	0.476596
185	C	0.220876	0.614877	0.310969
186	C	0.214393	0.606732	0.124365
187	C	0.235098	0.616797	0
188	C	0.256944	0.632334	0.089809
189	S	0.252369	0.634778	0.327593
190	S	0.173598	0.58824	0.461679
191	S	0.117177	0.5652	0.661912
192	C	0.05762	0.543204	0.983394
193	N	0.032495	0.531491	0.983011
194	N	0.980813	0.486144	0.699856
195	C	0.955674	0.47438	0.699046
196	S	0.898634	0.459089	0.614096
197	S	0.844597	0.424628	0.380096
198	C	0.773302	0.390181	0.188933
199	H	0.781796	0.388434	0.714217
200	H	0.786478	0.414786	0.5668
201	H	0.821582	0.434271	0.824642
202	H	0.856793	0.435136	0.013398
203	H	0.903182	0.456804	0.125541
204	H	0.944186	0.499081	0.086762
205	H	0.989727	0.520781	0.093981
206	H	0.023581	0.497979	0.58178
207	H	0.069071	0.519397	0.589818
208	H	0.106338	0.552724	0.165651
209	H	0.153854	0.57785	0.088629
210	H	0.191944	0.611434	0.939372
211	H	0.229841	0.630091	0.707203
212	H	0.195607	0.594097	0.07911
213	H	0.275306	0.642358	0.028859
214	H	0.066077	0.555985	0.101613
215	H	0.947305	0.461233	0.582936
216	H	0.761425	0.385129	0.313337
