data_C96H48N12O6S12_2023-05-15_07:52:49
#******************************************
#
# CIF file created by Zeo++
# Zeo++ is an open source package to
# analyze microporous materials
#
#*******************************************

_cell_length_a		56.8503   
_cell_length_b		57.1487   
_cell_length_c		7   
_cell_angle_alpha		90   
_cell_angle_beta		90   
_cell_angle_gamma		119.772   

_symmetry_space_group_name_H-M		'P1'
_symmetry_Int_Tables_number		1
_symmetry_cell_setting		Monoclinic

loop_
_symmetry_equiv_pos_as_xyz
'+x,+y,+z'

loop_
_atom_site_label
_atom_site_type_symbol
_atom_site_fract_x
_atom_site_fract_y
_atom_site_fract_z
1	C	0.3606	0.672371	0.999995
2	O	0.384504	0.676566	0.999991
3	C	0.33898	0.64434	0.999998
4	C	0.343167	0.623678	0
5	N	0.369926	0.62851	0
6	C	0.311336	0.639364	3e-06
7	O	0.291907	0.615204	5e-06
8	C	0.304704	0.660922	6e-06
9	C	0.279264	0.65572	5e-06
10	N	0.258227	0.628231	0
11	C	0.327363	0.688729	4e-06
12	O	0.322093	0.707372	7e-06
13	C	0.355453	0.694954	0.999999
14	C	0.375428	0.720322	0.999998
15	N	0.371426	0.742841	0
16	H	0.326618	0.603564	1e-06
17	H	0.273905	0.671161	8e-06
18	H	0.395623	0.723945	0.999997
19	C	0.6394	0.327629	0.999995
20	O	0.615496	0.323434	0.999991
21	C	0.66102	0.35566	0.999998
22	C	0.656833	0.376322	0
23	N	0.630074	0.37149	0
24	C	0.688664	0.360636	3e-06
25	O	0.708093	0.384796	5e-06
26	C	0.695296	0.339078	6e-06
27	C	0.720736	0.34428	5e-06
28	N	0.741773	0.371769	0
29	C	0.672637	0.311271	4e-06
30	O	0.677907	0.292628	7e-06
31	C	0.644547	0.305046	0.999999
32	C	0.624572	0.279678	0.999998
33	N	0.628574	0.257159	0
34	H	0.673382	0.396436	1e-06
35	H	0.726095	0.328839	8e-06
36	H	0.604377	0.276055	0.999997
37	C	0.613751	0.387618	0
38	C	0.609932	0.391392	0.811879
39	S	0.59258	0.408536	0.789728
40	C	0.590087	0.410998	0.033774
41	C	0.57666	0.424263	0.12154
42	C	0.573807	0.427081	0.314885
43	C	0.55953	0.441186	0.355062
44	C	0.551497	0.449124	0.19235
45	C	0.536444	0.463995	0.176039
46	C	0.528127	0.472212	0.338234
47	C	0.513867	0.4863	0.322017
48	C	0.50776	0.492335	0.142138
49	C	0.4927	0.507214	0.110799
50	C	0.483118	0.51668	0.258043
51	C	0.469132	0.530498	0.215646
52	C	0.46455	0.535025	0.026615
53	C	0.44997	0.549431	0.971804
54	C	0.444219	0.555114	0.791119
55	C	0.429657	0.5695	0.79376
56	C	0.424305	0.574786	0.97641
57	C	0.409952	0.588966	0.027979
58	C	0.398951	0.599835	0.903251
59	C	0.386249	0.612382	0
60	C	0.387522	0.611124	0.194765
61	S	0.404284	0.594563	0.261403
62	S	0.437256	0.561989	0.14102
63	C	0.474819	0.524881	0.889359
64	N	0.488417	0.511446	0.926311
65	N	0.515691	0.4845	0.983097
66	C	0.529484	0.470872	0.002738
67	S	0.561761	0.438983	0.993227
68	C	0.602543	0.39869	0.12792
69	H	0.616364	0.385038	0.686399
70	H	0.581539	0.419441	0.425366
71	H	0.555518	0.44515	0.499143
72	H	0.532483	0.467907	0.480903
73	H	0.507895	0.492199	0.452273
74	H	0.486114	0.513719	0.407031
75	H	0.46203	0.537514	0.334887
76	H	0.450053	0.549352	0.659712
77	H	0.423518	0.575566	0.665138
78	H	0.399983	0.598816	0.749267
79	H	0.379543	0.619005	0.301417
80	H	0.472562	0.527111	0.737485
81	H	0.53476	0.465661	0.866239
82	H	0.603559	0.397684	0.28191
83	C	0.611911	0.224626	0
84	C	0.608143	0.217079	0.811879
85	S	0.591027	0.182791	0.789728
86	C	0.58857	0.177866	0.033774
87	C	0.575327	0.151335	0.12154
88	C	0.572514	0.145699	0.314885
89	C	0.558433	0.117489	0.355062
90	C	0.550509	0.101615	0.19235
91	C	0.535662	0.071871	0.176039
92	C	0.52746	0.055438	0.338234
93	C	0.513396	0.027262	0.322017
94	C	0.50737	0.015192	0.142138
95	C	0.492517	0.985435	0.110799
96	C	0.483066	0.966501	0.258043
97	C	0.469272	0.938866	0.215646
98	C	0.464752	0.929812	0.026615
99	C	0.450371	0.901001	0.971804
100	C	0.444697	0.889636	0.791119
101	C	0.430335	0.860863	0.79376
102	C	0.425059	0.85029	0.97641
103	C	0.410903	0.82193	0.027979
104	C	0.400052	0.800192	0.903251
105	C	0.387526	0.775096	0
106	C	0.388783	0.777612	0.194765
107	S	0.405316	0.810734	0.261403
108	S	0.437834	0.875882	0.14102
109	C	0.474879	0.950102	0.889359
110	N	0.488291	0.976971	0.926311
111	N	0.515192	0.030863	0.983097
112	C	0.528797	0.058118	0.002738
113	S	0.560632	0.121897	0.993227
114	C	0.600857	0.20248	0.12792
115	H	0.614485	0.229787	0.686399
116	H	0.580141	0.160978	0.425366
117	H	0.554475	0.109561	0.499143
118	H	0.531757	0.064046	0.480903
119	H	0.507506	0.015462	0.452273
120	H	0.486023	0.972423	0.407031
121	H	0.462268	0.924834	0.334887
122	H	0.45045	0.901162	0.659712
123	H	0.42428	0.848732	0.665138
124	H	0.401069	0.802231	0.749267
125	H	0.380914	0.761848	0.301417
126	H	0.472653	0.945642	0.737485
127	H	0.533999	0.068542	0.866239
128	H	0.601861	0.20449	0.28191
129	C	0.773918	0.387339	0
130	C	0.781504	0.391111	0.811879
131	S	0.815972	0.408255	0.789728
132	C	0.820922	0.410718	0.033774
133	C	0.847593	0.423984	0.12154
134	C	0.853258	0.426802	0.314885
135	C	0.881616	0.440907	0.355062
136	C	0.897574	0.448844	0.19235
137	C	0.927473	0.463715	0.176039
138	C	0.943993	0.471933	0.338234
139	C	0.972316	0.486021	0.322017
140	C	0.984449	0.492055	0.142138
141	C	0.014362	0.506933	0.110799
142	C	0.033395	0.516401	0.258043
143	C	0.061176	0.530218	0.215646
144	C	0.070276	0.534745	0.026615
145	C	0.099238	0.54915	0.971804
146	C	0.110663	0.554832	0.791119
147	C	0.139587	0.569219	0.79376
148	C	0.150215	0.574506	0.97641
149	C	0.178724	0.588686	0.027979
150	C	0.200576	0.599555	0.903251
151	C	0.225804	0.612104	0
152	C	0.223275	0.610847	0.194765
153	S	0.189979	0.594286	0.261403
154	S	0.12449	0.561711	0.14102
155	C	0.049881	0.5246	0.889359
156	N	0.022871	0.511165	0.926311
157	N	0.968697	0.484219	0.983097
158	C	0.941298	0.470591	0.002738
159	S	0.877185	0.438703	0.993227
160	C	0.796179	0.398412	0.12792
161	H	0.76873	0.384757	0.686399
162	H	0.837899	0.419163	0.425366
163	H	0.889586	0.444871	0.499143
164	H	0.935339	0.467629	0.480903
165	H	0.984178	0.491921	0.452273
166	H	0.027443	0.513441	0.407031
167	H	0.075281	0.537235	0.334887
168	H	0.099077	0.549068	0.659712
169	H	0.151781	0.575283	0.665138
170	H	0.198527	0.598535	0.749267
171	H	0.239122	0.618729	0.301417
172	H	0.054364	0.526829	0.737485
173	H	0.93082	0.465379	0.866239
174	H	0.794159	0.397408	0.28191
