data_C81H39N9O6S12_2023-05-14_20:23:45
#******************************************
#
# CIF file created by Zeo++
# Zeo++ is an open source package to
# analyze microporous materials
#
#*******************************************

_cell_length_a		48.8456   
_cell_length_b		49.1441   
_cell_length_c		7   
_cell_angle_alpha		90   
_cell_angle_beta		90   
_cell_angle_gamma		119.735   

_symmetry_space_group_name_H-M		'P1'
_symmetry_Int_Tables_number		1
_symmetry_cell_setting		Monoclinic

loop_
_symmetry_equiv_pos_as_xyz
'+x,+y,+z'

loop_
_atom_site_label
_atom_site_type_symbol
_atom_site_fract_x
_atom_site_fract_y
_atom_site_fract_z
1	C	0.365063	0.673298	0.999995
2	O	0.392881	0.678174	0.999991
3	C	0.339925	0.640713	0.999998
4	C	0.344816	0.616695	0
5	N	0.375956	0.622311	0
6	C	0.307754	0.634929	3e-06
7	O	0.285163	0.606844	5e-06
8	C	0.300017	0.659989	6e-06
9	C	0.270413	0.653941	5e-06
10	N	0.245953	0.621987	0
11	C	0.326365	0.692313	4e-06
12	O	0.320216	0.713984	7e-06
13	C	0.359053	0.69955	0.999999
14	C	0.38228	0.729039	0.999998
15	N	0.377602	0.755216	0
16	H	0.325572	0.593313	1e-06
17	H	0.264162	0.671891	8e-06
18	H	0.40578	0.73325	0.999997
19	C	0.634937	0.326702	0.999995
20	O	0.607119	0.321826	0.999991
21	C	0.660075	0.359287	0.999998
22	C	0.655184	0.383305	0
23	N	0.624044	0.377689	0
24	C	0.692246	0.365071	3e-06
25	O	0.714837	0.393156	5e-06
26	C	0.699983	0.340011	6e-06
27	C	0.729587	0.346059	5e-06
28	N	0.754047	0.378013	0
29	C	0.673635	0.307687	4e-06
30	O	0.679784	0.286016	7e-06
31	C	0.640947	0.30045	0.999999
32	C	0.61772	0.270961	0.999998
33	N	0.622398	0.244784	0
34	H	0.674428	0.406687	1e-06
35	H	0.735838	0.328109	8e-06
36	H	0.59422	0.26675	0.999997
37	C	0.605032	0.396436	0
38	C	0.594903	0.406425	0.846987
39	C	0.578713	0.422389	0.908365
40	C	0.577088	0.423989	0.105709
41	C	0.562561	0.438313	0.217294
42	C	0.560951	0.439899	0.4137
43	C	0.54476	0.455863	0.474503
44	C	0.534035	0.46644	0.324477
45	C	0.516454	0.483774	0.330465
46	C	0.508254	0.491861	0.504379
47	C	0.491622	0.50826	0.509164
48	C	0.483184	0.51658	0.338506
49	C	0.465649	0.53387	0.332847
50	C	0.454844	0.544522	0.481966
51	C	0.438704	0.560437	0.419184
52	C	0.437253	0.561869	0.222485
53	C	0.422816	0.576105	0.109224
54	C	0.421364	0.57754	0.911688
55	C	0.405231	0.593448	0.848259
56	C	0.394968	0.603564	0
57	S	0.404258	0.594402	0.214009
58	S	0.455708	0.543674	0.118173
59	N	0.490724	0.509145	0.168056
60	C	0.506878	0.493216	0.167914
61	S	0.544189	0.456429	0.111286
62	S	0.595553	0.40578	0.212804
63	H	0.598682	0.402699	0.6991
64	H	0.568771	0.432193	0.810002
65	H	0.570873	0.430115	0.51233
66	H	0.541381	0.459194	0.623733
67	H	0.514553	0.485651	0.63982
68	H	0.485636	0.514163	0.646274
69	H	0.458156	0.541255	0.631388
70	H	0.428693	0.570307	0.516506
71	H	0.431408	0.567639	0.81475
72	H	0.401589	0.597041	0.699893
73	H	0.511841	0.488323	0.024631
74	C	0.603032	0.206966	0
75	C	0.593063	0.18699	0.846987
76	C	0.577131	0.155063	0.908365
77	C	0.575533	0.151859	0.105709
78	C	0.561238	0.123212	0.217294
79	C	0.559654	0.120038	0.4137
80	C	0.543722	0.08811	0.474503
81	C	0.533166	0.066958	0.324477
82	C	0.515866	0.032288	0.330465
83	C	0.507795	0.016116	0.504379
84	C	0.491428	0.983317	0.509164
85	C	0.483125	0.966677	0.338506
86	C	0.465869	0.932098	0.332847
87	C	0.455238	0.910792	0.481966
88	C	0.439354	0.878961	0.419184
89	C	0.437924	0.876099	0.222485
90	C	0.423717	0.847628	0.109224
91	C	0.422285	0.844761	0.911688
92	C	0.406408	0.812946	0.848259
93	C	0.396312	0.79271	0
94	S	0.405456	0.811033	0.214009
95	S	0.456084	0.912492	0.118173
96	N	0.490545	0.981547	0.168056
97	C	0.506442	0.013404	0.167914
98	S	0.543157	0.08698	0.111286
99	S	0.593706	0.188276	0.212804
100	H	0.596781	0.194443	0.6991
101	H	0.567346	0.135455	0.810002
102	H	0.56942	0.139607	0.51233
103	H	0.540398	0.081447	0.623733
104	H	0.513993	0.028537	0.63982
105	H	0.485537	0.971512	0.646274
106	H	0.458499	0.917324	0.631388
107	H	0.429504	0.859221	0.516506
108	H	0.432167	0.864566	0.81475
109	H	0.402822	0.805761	0.699893
110	H	0.511326	0.023191	0.024631
111	C	0.791447	0.396112	0
112	C	0.811545	0.406099	0.846987
113	C	0.843667	0.422063	0.908365
114	C	0.84689	0.423665	0.105709
115	C	0.875712	0.437989	0.217294
116	C	0.878905	0.439577	0.4137
117	C	0.911028	0.455541	0.474503
118	C	0.932309	0.466116	0.324477
119	C	0.96719	0.483452	0.330465
120	C	0.983461	0.491537	0.504379
121	C	0.016461	0.507937	0.509164
122	C	0.033202	0.516257	0.338506
123	C	0.067992	0.533547	0.332847
124	C	0.089428	0.544201	0.481966
125	C	0.121453	0.560116	0.419184
126	C	0.124333	0.561546	0.222485
127	C	0.152977	0.575781	0.109224
128	C	0.155861	0.577213	0.911688
129	C	0.187871	0.593121	0.848259
130	C	0.20823	0.60324	0
131	S	0.189796	0.59408	0.214009
132	S	0.087718	0.543349	0.118173
133	N	0.018241	0.508822	0.168056
134	C	0.98619	0.492894	0.167914
135	S	0.912165	0.456105	0.111286
136	S	0.810251	0.405458	0.212804
137	H	0.804047	0.402372	0.6991
138	H	0.863394	0.431866	0.810002
139	H	0.859218	0.429793	0.51233
140	H	0.917732	0.458873	0.623733
141	H	0.970965	0.485327	0.63982
142	H	0.028337	0.513839	0.646274
143	H	0.082856	0.540935	0.631388
144	H	0.141314	0.569987	0.516506
145	H	0.135936	0.56731	0.81475
146	H	0.195099	0.596712	0.699893
147	H	0.976343	0.488	0.024631
