data_C105H51N9O6S18_2023-05-13_06:36:55
#******************************************
#
# CIF file created by Zeo++
# Zeo++ is an open source package to
# analyze microporous materials
#
#*******************************************

_cell_length_a		63.0445   
_cell_length_b		63.3429   
_cell_length_c		7   
_cell_angle_alpha		90   
_cell_angle_beta		90   
_cell_angle_gamma		119.794   

_symmetry_space_group_name_H-M		'P1'
_symmetry_Int_Tables_number		1
_symmetry_cell_setting		Monoclinic

loop_
_symmetry_equiv_pos_as_xyz
'+x,+y,+z'

loop_
_atom_site_label
_atom_site_type_symbol
_atom_site_fract_x
_atom_site_fract_y
_atom_site_fract_z
1	C	0.357923	0.671814	0.999995
2	O	0.37948	0.6756	0.999991
3	C	0.338417	0.646519	0.999998
4	C	0.342184	0.627873	0
5	N	0.366315	0.632233	0
6	C	0.313486	0.642029	3e-06
7	O	0.295956	0.620226	5e-06
8	C	0.307515	0.661483	6e-06
9	C	0.284572	0.656788	5e-06
10	N	0.265591	0.631982	0
11	C	0.327958	0.686576	4e-06
12	O	0.323214	0.703399	7e-06
13	C	0.353292	0.692194	0.999999
14	C	0.371314	0.715086	0.999998
15	N	0.367714	0.735408	0
16	H	0.327252	0.609722	1e-06
17	H	0.279746	0.670722	8e-06
18	H	0.389526	0.718355	0.999997
19	C	0.642077	0.328186	0.999995
20	O	0.62052	0.3244	0.999991
21	C	0.661583	0.353481	0.999998
22	C	0.657816	0.372127	0
23	N	0.633685	0.367767	0
24	C	0.686514	0.357971	3e-06
25	O	0.704044	0.379774	5e-06
26	C	0.692485	0.338517	6e-06
27	C	0.715428	0.343212	5e-06
28	N	0.734409	0.368018	0
29	C	0.672042	0.313424	4e-06
30	O	0.676786	0.296601	7e-06
31	C	0.646708	0.307806	0.999999
32	C	0.628686	0.284914	0.999998
33	N	0.632286	0.264592	0
34	H	0.672748	0.390278	1e-06
35	H	0.720254	0.329278	8e-06
36	H	0.610474	0.281645	0.999997
37	C	0.618972	0.38232	0
38	C	0.623346	0.389997	0.81397
39	C	0.612711	0.404759	0.770431
40	C	0.600586	0.407714	0.924543
41	C	0.588113	0.421726	0.92746
42	C	0.591289	0.439724	0.799919
43	C	0.576119	0.449977	0.841229
44	C	0.561423	0.439662	0.999634
45	C	0.543885	0.445494	0.082945
46	C	0.529303	0.435278	0.242156
47	C	0.514158	0.445532	0.284018
48	C	0.517258	0.46338	0.155504
49	C	0.505347	0.478221	0.152681
50	C	0.496797	0.483342	0.98492
51	C	0.485361	0.497419	0.990976
52	C	0.482546	0.506172	0.166013
53	C	0.470813	0.521137	0.191548
54	C	0.467071	0.530179	0.360453
55	C	0.455108	0.544035	0.333842
56	C	0.449795	0.545536	0.144423
57	C	0.437805	0.558018	0.064427
58	C	0.435098	0.562037	0.874149
59	C	0.42223	0.575054	0.847322
60	C	0.415161	0.580837	0.017293
61	C	0.401915	0.593888	0.044746
62	C	0.392777	0.597705	0.213639
63	C	0.380666	0.61149	0.187826
64	C	0.381028	0.61768	0
65	S	0.395439	0.607343	0.856441
66	S	0.424442	0.570215	0.206873
67	S	0.459581	0.529887	0.002974
68	N	0.490598	0.501372	0.331126
69	C	0.501662	0.487711	0.320586
70	S	0.538681	0.467496	0.986892
71	S	0.566505	0.417569	0.094721
72	S	0.602543	0.392399	0.121119
73	H	0.633519	0.385443	0.713533
74	H	0.613885	0.412686	0.630996
75	H	0.604071	0.445638	0.681821
76	H	0.576258	0.464383	0.756841
77	H	0.529307	0.420982	0.32714
78	H	0.501479	0.43981	0.402873
79	H	0.498698	0.476354	0.847921
80	H	0.47887	0.501143	0.858737
81	H	0.472774	0.52693	0.498271
82	H	0.450785	0.552492	0.450558
83	H	0.442028	0.556062	0.756779
84	H	0.41845	0.579799	0.707693
85	H	0.394551	0.590934	0.351415
86	H	0.372296	0.616405	0.301563
87	H	0.507843	0.484698	0.457622
88	C	0.617247	0.235234	0
89	C	0.609531	0.231933	0.81397
90	C	0.594774	0.20667	0.770431
91	C	0.591861	0.191684	0.924543
92	C	0.577864	0.165341	0.92746
93	C	0.559805	0.150572	0.799919
94	C	0.549587	0.125295	0.841229
95	C	0.559991	0.120971	0.999634
96	C	0.554215	0.097743	0.082945
97	C	0.564519	0.093433	0.242156
98	C	0.5543	0.068179	0.284018
99	C	0.536392	0.053485	0.155504
100	C	0.521561	0.026874	0.152681
101	C	0.516461	0.013282	0.98492
102	C	0.502395	0.987906	0.990976
103	C	0.49363	0.976392	0.166013
104	C	0.478674	0.949835	0.191548
105	C	0.469623	0.937114	0.360453
106	C	0.45578	0.911433	0.333842
107	C	0.454297	0.904661	0.144423
108	C	0.441831	0.880322	0.064427
109	C	0.437813	0.873631	0.874149
110	C	0.424815	0.847888	0.847322
111	C	0.419045	0.835106	0.017293
112	C	0.406014	0.808954	0.044746
113	C	0.402225	0.796077	0.213639
114	C	0.388453	0.770319	0.187826
115	C	0.382246	0.764514	0
116	S	0.392551	0.789122	0.856441
117	S	0.429657	0.854903	0.206873
118	S	0.469947	0.929965	0.002974
119	N	0.49841	0.98917	0.331126
120	C	0.512061	0.013763	0.320586
121	S	0.532176	0.070663	0.986892
122	S	0.582121	0.148019	0.094721
123	S	0.607209	0.20888	0.121119
124	H	0.614056	0.246573	0.713533
125	H	0.586821	0.199941	0.630996
126	H	0.553822	0.157378	0.681821
127	H	0.535142	0.111086	0.756841
128	H	0.578853	0.107674	0.32714
129	H	0.56009	0.061284	0.402873
130	H	0.52346	0.022129	0.847921
131	H	0.498687	0.977749	0.858737
132	H	0.472857	0.946014	0.498271
133	H	0.447318	0.898717	0.450558
134	H	0.443775	0.886464	0.756779
135	H	0.420073	0.839408	0.707693
136	H	0.409006	0.804581	0.351415
137	H	0.38356	0.757111	0.301563
138	H	0.515057	0.022903	0.457622
139	C	0.763402	0.382069	0
140	C	0.766744	0.377692	0.81397
141	C	0.792135	0.388194	0.770431
142	C	0.807174	0.400225	0.924543
143	C	0.833644	0.412556	0.92746
144	C	0.848527	0.409327	0.799919
145	C	0.873914	0.424351	0.841229
146	C	0.878206	0.43899	0.999634
147	C	0.90152	0.456386	0.082945
148	C	0.905799	0.470912	0.242156
149	C	0.931163	0.485912	0.284018
150	C	0.94597	0.482759	0.155504
151	C	0.972713	0.494528	0.152681
152	C	0.986362	0.502999	0.98492
153	C	0.011864	0.514299	0.990976
154	C	0.023444	0.517059	0.166013
155	C	0.050134	0.528651	0.191548
156	C	0.062927	0.53233	0.360453
157	C	0.088733	0.544155	0.333842
158	C	0.095529	0.549426	0.144423
159	C	0.119984	0.561282	0.064427
160	C	0.12671	0.563954	0.874149
161	C	0.152575	0.576681	0.847322
162	C	0.165415	0.583679	0.017293
163	C	0.191691	0.596781	0.044746
164	C	0.204618	0.605841	0.213639
165	C	0.230501	0.617814	0.187826
166	C	0.236347	0.617428	0
167	S	0.211631	0.603158	0.856441
168	S	0.145521	0.574504	0.206873
169	S	0.070093	0.539771	0.002974
170	N	0.010612	0.509081	0.331126
171	C	0.985898	0.498149	0.320586
172	S	0.928763	0.461464	0.986892
173	S	0.850994	0.434035	0.094721
174	S	0.789868	0.398345	0.121119
175	H	0.752046	0.367607	0.713533
176	H	0.798915	0.386995	0.630996
177	H	0.841728	0.396607	0.681821
178	H	0.88822	0.424153	0.756841
179	H	0.891461	0.470967	0.32714
180	H	0.938051	0.498529	0.402873
181	H	0.977463	0.50114	0.847921
182	H	0.022063	0.520731	0.858737
183	H	0.053989	0.526679	0.498271
184	H	0.101518	0.548414	0.450558
185	H	0.113818	0.557096	0.756779
186	H	0.161098	0.580417	0.707693
187	H	0.196063	0.604108	0.351415
188	H	0.243765	0.626107	0.301563
189	H	0.976721	0.492022	0.457622
