data_C72H36N6O6S12_2023-05-12_05:57:15
#******************************************
#
# CIF file created by Zeo++
# Zeo++ is an open source package to
# analyze microporous materials
#
#*******************************************

_cell_length_a		41.6172   
_cell_length_b		41.9158   
_cell_length_c		7   
_cell_angle_alpha		90   
_cell_angle_beta		90   
_cell_angle_gamma		119.689   

_symmetry_space_group_name_H-M		'P1'
_symmetry_Int_Tables_number		1
_symmetry_cell_setting		Monoclinic

loop_
_symmetry_equiv_pos_as_xyz
'+x,+y,+z'

loop_
_atom_site_label
_atom_site_type_symbol
_atom_site_fract_x
_atom_site_fract_y
_atom_site_fract_z
1	C	0.370566	0.674438	0.999995
2	O	0.403211	0.680152	0.999991
3	C	0.341098	0.636251	0.999998
4	C	0.346865	0.608104	0
5	N	0.383407	0.614686	0
6	C	0.303346	0.629473	3e-06
7	O	0.276861	0.59656	5e-06
8	C	0.294238	0.658841	6e-06
9	C	0.259498	0.651754	5e-06
10	N	0.230824	0.614306	0
11	C	0.325127	0.696723	4e-06
12	O	0.317886	0.722119	7e-06
13	C	0.363485	0.705203	0.999999
14	C	0.390713	0.739761	0.999998
15	N	0.385194	0.770439	0
16	H	0.324304	0.580702	1e-06
17	H	0.252142	0.672789	8e-06
18	H	0.418291	0.744696	0.999997
19	C	0.629434	0.325562	0.999995
20	O	0.596789	0.319848	0.999991
21	C	0.658902	0.363749	0.999998
22	C	0.653135	0.391896	0
23	N	0.616593	0.385314	0
24	C	0.696654	0.370527	3e-06
25	O	0.723139	0.40344	5e-06
26	C	0.705762	0.341159	6e-06
27	C	0.740502	0.348246	5e-06
28	N	0.769176	0.385694	0
29	C	0.674873	0.303277	4e-06
30	O	0.682114	0.277881	7e-06
31	C	0.636515	0.294797	0.999999
32	C	0.609287	0.260239	0.999998
33	N	0.614806	0.229561	0
34	H	0.675696	0.419298	1e-06
35	H	0.747858	0.327211	8e-06
36	H	0.581709	0.255304	0.999997
37	C	0.405742	0.592716	0
38	C	0.415957	0.582669	0.165823
39	C	0.435565	0.563381	0.127557
40	C	0.451361	0.547844	0.284478
41	C	0.470267	0.529246	0.246963
42	C	0.481367	0.51833	0.417327
43	C	0.501417	0.498607	0.415513
44	C	0.512801	0.487409	0.568423
45	C	0.532844	0.467694	0.564578
46	C	0.543205	0.457502	0.730785
47	S	0.566703	0.434387	0.688113
48	C	0.56341	0.437628	0.446613
49	C	0.579747	0.421558	0.295482
50	C	0.598388	0.403221	0.34582
51	S	0.612787	0.389058	0.15007
52	C	0.594258	0.407284	0
53	C	0.577376	0.42389	0.092712
54	C	0.544688	0.456043	0.399847
55	C	0.47027	0.529247	0.578313
56	S	0.446969	0.552166	0.52416
57	C	0.43918	0.559824	0.933817
58	S	0.419088	0.579586	0.80041
59	H	0.40975	0.588775	0.306855
60	H	0.476067	0.52354	0.104151
61	H	0.507704	0.492422	0.274104
62	H	0.506539	0.493569	0.71002
63	H	0.538246	0.46238	0.876754
64	H	0.604471	0.397237	0.487183
65	H	0.564096	0.436953	0.01913
66	H	0.539724	0.460926	0.253938
67	H	0.474377	0.525208	0.726866
68	H	0.4525	0.54672	0.861458
69	C	0.407113	0.814379	0
70	C	0.417137	0.834474	0.165823
71	C	0.436381	0.873049	0.127557
72	C	0.451881	0.904123	0.284478
73	C	0.470436	0.941318	0.246963
74	C	0.481328	0.963152	0.417327
75	C	0.501005	0.002597	0.415513
76	C	0.512177	0.024993	0.568423
77	C	0.531846	0.064422	0.564578
78	C	0.542015	0.084807	0.730785
79	S	0.565076	0.131036	0.688113
80	C	0.561843	0.124555	0.446613
81	C	0.577876	0.156695	0.295482
82	C	0.59617	0.193368	0.34582
83	S	0.610301	0.221695	0.15007
84	C	0.592116	0.185242	0
85	C	0.575549	0.152031	0.092712
86	C	0.54347	0.087725	0.399847
87	C	0.470436	0.94132	0.578313
88	S	0.447569	0.895481	0.52416
89	C	0.439929	0.880161	0.933817
90	S	0.420213	0.840636	0.80041
91	H	0.411045	0.822262	0.306855
92	H	0.476129	0.952729	0.104151
93	H	0.507176	0.014967	0.274104
94	H	0.506031	0.012674	0.71002
95	H	0.537148	0.075051	0.876754
96	H	0.60214	0.205336	0.487183
97	H	0.562515	0.125904	0.01913
98	H	0.538598	0.077959	0.253938
99	H	0.474465	0.949399	0.726866
100	H	0.453003	0.906368	0.861458
101	C	0.18657	0.592336	0
102	C	0.166331	0.582288	0.165823
103	C	0.127479	0.563001	0.127557
104	C	0.096183	0.547464	0.284478
105	C	0.058722	0.528866	0.246963
106	C	0.036731	0.517949	0.417327
107	C	0.997004	0.498227	0.415513
108	C	0.974448	0.487028	0.568423
109	C	0.934736	0.467314	0.564578
110	C	0.914205	0.457122	0.730785
111	S	0.867646	0.434008	0.688113
112	C	0.874173	0.437248	0.446613
113	C	0.841803	0.421178	0.295482
114	C	0.804868	0.402842	0.34582
115	S	0.776338	0.388678	0.15007
116	C	0.813051	0.406904	0
117	C	0.846501	0.42351	0.092712
118	C	0.911267	0.455663	0.399847
119	C	0.05872	0.528864	0.578313
120	S	0.104887	0.551784	0.52416
121	C	0.120316	0.559446	0.933817
122	S	0.160124	0.579209	0.80041
123	H	0.17863	0.588394	0.306855
124	H	0.047229	0.523161	0.104151
125	H	0.984545	0.492042	0.274104
126	H	0.986855	0.493188	0.71002
127	H	0.924031	0.462	0.876754
128	H	0.792814	0.396858	0.487183
129	H	0.872814	0.436573	0.01913
130	H	0.921103	0.460546	0.253938
131	H	0.050583	0.524824	0.726866
132	H	0.093922	0.546343	0.861458
