data_C90H36N12O6S18_2023-05-12_03:59:18
#******************************************
#
# CIF file created by Zeo++
# Zeo++ is an open source package to
# analyze microporous materials
#
#*******************************************

_cell_length_a		48.8718   
_cell_length_b		49.1703   
_cell_length_c		7   
_cell_angle_alpha		90   
_cell_angle_beta		90   
_cell_angle_gamma		119.735   

_symmetry_space_group_name_H-M		'P1'
_symmetry_Int_Tables_number		1
_symmetry_cell_setting		Monoclinic

loop_
_symmetry_equiv_pos_as_xyz
'+x,+y,+z'

loop_
_atom_site_label
_atom_site_type_symbol
_atom_site_fract_x
_atom_site_fract_y
_atom_site_fract_z
1	C	0.365046	0.673294	0.999995
2	O	0.392849	0.678168	0.999991
3	C	0.339922	0.640726	0.999998
4	C	0.34481	0.616721	0
5	N	0.375933	0.622335	0
6	C	0.307768	0.634946	3e-06
7	O	0.285188	0.606876	5e-06
8	C	0.300035	0.659992	6e-06
9	C	0.270446	0.653948	5e-06
10	N	0.246	0.622011	0
11	C	0.326369	0.6923	4e-06
12	O	0.320223	0.713959	7e-06
13	C	0.35904	0.699532	0.999999
14	C	0.382254	0.729006	0.999998
15	N	0.377578	0.755169	0
16	H	0.325576	0.593352	1e-06
17	H	0.264199	0.671888	8e-06
18	H	0.405741	0.733214	0.999997
19	C	0.634954	0.326706	0.999995
20	O	0.607151	0.321832	0.999991
21	C	0.660078	0.359274	0.999998
22	C	0.65519	0.383279	0
23	N	0.624067	0.377665	0
24	C	0.692232	0.365054	3e-06
25	O	0.714812	0.393124	5e-06
26	C	0.699965	0.340008	6e-06
27	C	0.729554	0.346052	5e-06
28	N	0.754	0.377989	0
29	C	0.673631	0.3077	4e-06
30	O	0.679777	0.286041	7e-06
31	C	0.64096	0.300468	0.999999
32	C	0.617746	0.270994	0.999998
33	N	0.622422	0.244831	0
34	H	0.674424	0.406648	1e-06
35	H	0.735801	0.328112	8e-06
36	H	0.594259	0.266786	0.999997
37	C	0.605065	0.396402	0
38	C	0.617447	0.427914	0.972354
39	C	0.593856	0.436744	0.995581
40	C	0.564383	0.411681	0.03993
41	C	0.53521	0.41195	0.073278
42	C	0.505801	0.386911	0.11607
43	C	0.482269	0.395756	0.139588
44	C	0.494221	0.427479	0.115756
45	C	0.477851	0.445423	0.12715
46	C	0.458441	0.44356	0.973557
47	N	0.452801	0.426066	0.807008
48	C	0.433329	0.429856	0.6961
49	S	0.420335	0.45401	0.780306
50	C	0.442684	0.460729	0.985074
51	C	0.44637	0.479187	0.145596
52	C	0.429824	0.496957	0.157543
53	C	0.403163	0.490262	0.260475
54	C	0.394179	0.51358	0.23622
55	C	0.414188	0.537699	0.116207
56	C	0.412197	0.565006	0.058959
57	C	0.434504	0.591387	0.962261
58	C	0.424502	0.613758	0.927837
59	C	0.394935	0.603598	0
60	S	0.379258	0.568192	0.107103
61	S	0.443856	0.531445	0.035384
62	C	0.465214	0.480493	0.300998
63	C	0.480956	0.463306	0.289583
64	S	0.501997	0.468734	0.498674
65	C	0.48903	0.49292	0.582595
66	N	0.470108	0.497247	0.469892
67	S	0.533484	0.446034	0.061927
68	S	0.566207	0.377591	0.052339
69	H	0.641864	0.443973	0.937468
70	H	0.598621	0.460607	0.97991
71	H	0.500926	0.362972	0.129731
72	H	0.457766	0.379529	0.171834
73	H	0.425792	0.418294	0.559006
74	H	0.390723	0.469726	0.35009
75	H	0.37391	0.512498	0.306359
76	H	0.457241	0.594801	0.917289
77	H	0.438413	0.635826	0.854319
78	H	0.496009	0.503935	0.721424
79	C	0.603066	0.207034	0
80	C	0.57138	0.187964	0.972354
81	C	0.562646	0.155796	0.995581
82	C	0.587952	0.151509	0.03993
83	C	0.587837	0.122322	0.073278
84	C	0.613119	0.118075	0.11607
85	C	0.604369	0.08595	0.139588
86	C	0.572474	0.066245	0.115756
87	C	0.554555	0.032169	0.12715
88	C	0.556528	0.014781	0.973557
89	N	0.574112	0.02659	0.807008
90	C	0.570412	0.003518	0.6961
91	S	0.546245	0.966612	0.780306
92	C	0.539384	0.982083	0.985074
93	C	0.520842	0.967377	0.145596
94	C	0.503099	0.9333	0.157543
95	C	0.50996	0.913531	0.260475
96	C	0.486609	0.881431	0.23622
97	C	0.462301	0.877275	0.116207
98	C	0.434911	0.84814	0.058959
99	C	0.40832	0.844013	0.962261
100	C	0.385925	0.811846	0.927837
101	C	0.396278	0.792643	0
102	S	0.43189	0.812319	0.107103
103	S	0.468418	0.912905	0.035384
104	C	0.519432	0.984759	0.300998
105	C	0.536594	0.017459	0.289583
106	S	0.531035	0.032917	0.498674
107	C	0.506835	0.996007	0.582595
108	N	0.502594	0.972945	0.469892
109	S	0.553645	0.086709	0.061927
110	S	0.622149	0.187225	0.052339
111	H	0.555135	0.196195	0.937468
112	H	0.538675	0.136784	0.97991
113	H	0.637167	0.137055	0.129731
114	H	0.620782	0.0778	0.171834
115	H	0.582055	0.007547	0.559006
116	H	0.530633	0.921626	0.35009
117	H	0.487803	0.862415	0.306359
118	H	0.404774	0.863156	0.917289
119	H	0.363708	0.803686	0.854319
120	H	0.495745	0.991968	0.721424
121	C	0.79138	0.396078	0
122	C	0.810684	0.383636	0.972354
123	C	0.843009	0.406975	0.995581
124	C	0.847176	0.436325	0.03993
125	C	0.876464	0.465242	0.073278
126	C	0.880591	0.494529	0.11607
127	C	0.912872	0.517808	0.139588
128	C	0.932816	0.505791	0.115756
129	C	0.967104	0.521923	0.12715
130	C	0.984542	0.541174	0.973557
131	N	0.972598	0.546859	0.807008
132	C	0.995769	0.56614	0.6961
133	S	0.03293	0.578892	0.780306
134	C	0.017443	0.556703	0.985074
135	C	0.032299	0.55295	0.145596
136	C	0.066588	0.569258	0.157543
137	C	0.086388	0.595722	0.260475
138	C	0.118722	0.604503	0.23622
139	C	0.123022	0.58454	0.116207
140	C	0.152403	0.586369	0.058959
141	C	0.156686	0.564114	0.962261
142	C	0.189083	0.57391	0.927837
143	C	0.208297	0.603274	0
144	S	0.188363	0.619004	0.107103
145	S	0.087237	0.555164	0.035384
146	C	0.014865	0.534263	0.300998
147	C	0.98196	0.51875	0.289583
148	S	0.966479	0.497863	0.498674
149	C	0.003645	0.510588	0.582595
150	N	0.026809	0.529322	0.469892
151	S	0.912382	0.466771	0.061927
152	S	0.811155	0.434698	0.052339
153	H	0.802511	0.359346	0.937468
154	H	0.862214	0.402124	0.97991
155	H	0.861418	0.499488	0.129731
156	H	0.920963	0.542185	0.171834
157	H	0.991664	0.573673	0.559006
158	H	0.078154	0.608163	0.35009
159	H	0.137798	0.624602	0.306359
160	H	0.137496	0.541558	0.917289
161	H	0.19739	0.560003	0.854319
162	H	0.007757	0.503611	0.721424
