data_C48H24N6O6S6_2023-05-11_18:02:17
#******************************************
#
# CIF file created by Zeo++
# Zeo++ is an open source package to
# analyze microporous materials
#
#*******************************************

_cell_length_a		27.839   
_cell_length_b		28.1378   
_cell_length_c		7   
_cell_angle_alpha		90   
_cell_angle_beta		90   
_cell_angle_gamma		119.536   

_symmetry_space_group_name_H-M		'P1'
_symmetry_Int_Tables_number		1
_symmetry_cell_setting		Monoclinic

loop_
_symmetry_equiv_pos_as_xyz
'+x,+y,+z'

loop_
_atom_site_label
_atom_site_type_symbol
_atom_site_fract_x
_atom_site_fract_y
_atom_site_fract_z
1	C	0.388957	0.678225	0.999995
2	O	0.437732	0.686725	0.999991
3	C	0.345081	0.621426	0.999998
4	C	0.353831	0.57956	0
5	N	0.408428	0.58935	0
6	C	0.288676	0.611344	3e-06
7	O	0.249234	0.562389	5e-06
8	C	0.274924	0.655026	6e-06
9	C	0.223023	0.644485	5e-06
10	N	0.180331	0.588785	0
11	C	0.320926	0.711372	4e-06
12	O	0.309985	0.749147	7e-06
13	C	0.378229	0.723985	0.999999
14	C	0.418774	0.775388	0.999998
15	N	0.410383	0.821018	0
16	H	0.320231	0.538803	1e-06
17	H	0.211929	0.675773	8e-06
18	H	0.459978	0.782728	0.999997
19	C	0.611043	0.321775	0.999995
20	O	0.562268	0.313275	0.999991
21	C	0.654919	0.378574	0.999998
22	C	0.646169	0.42044	0
23	N	0.591572	0.41065	0
24	C	0.711324	0.388656	3e-06
25	O	0.750766	0.437611	5e-06
26	C	0.725076	0.344974	6e-06
27	C	0.776977	0.355515	5e-06
28	N	0.819669	0.411215	0
29	C	0.679074	0.288628	4e-06
30	O	0.690015	0.250853	7e-06
31	C	0.621771	0.276015	0.999999
32	C	0.581226	0.224612	0.999998
33	N	0.589617	0.178982	0
34	H	0.679769	0.461197	1e-06
35	H	0.788071	0.324227	8e-06
36	H	0.540022	0.217272	0.999997
37	C	0.558081	0.443328	0
38	C	0.602675	0.449464	0.102543
39	S	0.601288	0.470284	0.330807
40	C	0.54112	0.472564	0.291006
41	C	0.518627	0.488759	0.444393
42	C	0.492151	0.517634	0.429608
43	C	0.483587	0.539472	0.258122
44	C	0.434203	0.525052	0.166419
45	C	0.441919	0.556672	0
46	C	0.495957	0.595129	0.968379
47	S	0.53799	0.593371	0.143177
48	C	0.522435	0.455814	0.106309
49	H	0.63581	0.442603	0.05631
50	H	0.523805	0.476772	0.587535
51	H	0.47599	0.525769	0.559556
52	H	0.394707	0.492772	0.216822
53	H	0.513053	0.624401	0.853182
54	H	0.484761	0.452795	0.050459
55	C	0.555898	0.113062	0
56	C	0.54931	0.1509	0.102543
57	S	0.528377	0.128908	0.330807
58	C	0.526643	0.067395	0.291006
59	C	0.510559	0.029199	0.444393
60	C	0.481755	0.974519	0.429608
61	C	0.459865	0.94445	0.258122
62	C	0.474831	0.910102	0.166419
63	C	0.442948	0.886375	0
64	C	0.403755	0.901493	0.968379
65	S	0.405132	0.944629	0.143177
66	C	0.543668	0.065588	0.106309
67	H	0.555905	0.190329	0.05631
68	H	0.52257	0.046174	0.587535
69	H	0.473721	0.950544	0.559556
70	H	0.507674	0.903184	0.216822
71	H	0.374146	0.889329	0.853182
72	H	0.547056	0.031476	0.050459
73	C	0.885162	0.442763	0
74	C	0.847157	0.398789	0.102543
75	S	0.869476	0.399961	0.330807
76	C	0.931379	0.459195	0.291006
77	C	0.969956	0.481195	0.444393
78	C	0.025235	0.507001	0.429608
79	C	0.055691	0.515232	0.258122
80	C	0.090108	0.564	0.166419
81	C	0.114275	0.556107	0
82	C	0.09943	0.502532	0.968379
83	S	0.056019	0.461153	0.143177
84	C	0.933038	0.477751	0.106309
85	H	0.807427	0.366222	0.05631
86	H	0.952767	0.476208	0.587535
87	H	0.049431	0.52284	0.559556
88	H	0.096761	0.603197	0.216822
89	H	0.111942	0.485423	0.853182
90	H	0.967325	0.514882	0.050459
