data_C108H48N12O6S21_2023-05-15_16:02:43
#******************************************
#
# CIF file created by Zeo++
# Zeo++ is an open source package to
# analyze microporous materials
#
#*******************************************

_cell_length_a		59.0472   
_cell_length_b		59.3456   
_cell_length_c		7   
_cell_angle_alpha		90   
_cell_angle_beta		90   
_cell_angle_gamma		119.78   

_symmetry_space_group_name_H-M		'P1'
_symmetry_Int_Tables_number		1
_symmetry_cell_setting		Monoclinic

loop_
_symmetry_equiv_pos_as_xyz
'+x,+y,+z'

loop_
_atom_site_label
_atom_site_type_symbol
_atom_site_fract_x
_atom_site_fract_y
_atom_site_fract_z
1	C	0.359586	0.67216	0.999995
2	O	0.382602	0.6762	0.999991
3	C	0.338767	0.645164	0.999998
4	C	0.342794	0.625266	0
5	N	0.368558	0.629919	0
6	C	0.31215	0.640373	3e-06
7	O	0.293439	0.617105	5e-06
8	C	0.305768	0.661134	6e-06
9	C	0.281274	0.656124	5e-06
10	N	0.261016	0.629651	0
11	C	0.327589	0.687914	4e-06
12	O	0.322518	0.705868	7e-06
13	C	0.354635	0.693909	0.999999
14	C	0.373871	0.718341	0.999998
15	N	0.370021	0.740028	0
16	H	0.326857	0.605895	1e-06
17	H	0.276117	0.670995	8e-06
18	H	0.393314	0.721829	0.999997
19	C	0.640414	0.32784	0.999995
20	O	0.617398	0.3238	0.999991
21	C	0.661233	0.354836	0.999998
22	C	0.657206	0.374734	0
23	N	0.631442	0.370081	0
24	C	0.68785	0.359627	3e-06
25	O	0.706561	0.382895	5e-06
26	C	0.694232	0.338866	6e-06
27	C	0.718726	0.343876	5e-06
28	N	0.738984	0.370349	0
29	C	0.672411	0.312086	4e-06
30	O	0.677482	0.294132	7e-06
31	C	0.645365	0.306091	0.999999
32	C	0.626129	0.281659	0.999998
33	N	0.629979	0.259972	0
34	H	0.673143	0.394105	1e-06
35	H	0.723883	0.329005	8e-06
36	H	0.606686	0.278171	0.999997
37	C	0.615728	0.385612	0
38	C	0.62599	0.380539	0.15885
39	C	0.621192	0.391341	0.325984
40	C	0.607394	0.404152	0.288434
41	C	0.599563	0.417202	0.426372
42	C	0.609558	0.425005	0.608273
43	C	0.597435	0.437054	0.709725
44	C	0.578349	0.438368	0.604089
45	C	0.56226	0.449095	0.6662
46	C	0.556357	0.45188	0.852992
47	C	0.540152	0.46335	0.866909
48	C	0.533799	0.468877	0.690136
49	C	0.518147	0.480928	0.645479
50	C	0.52559	0.506435	0.703839
51	C	0.510726	0.51855	0.662843
52	C	0.487103	0.506246	0.559708
53	C	0.472134	0.519138	0.519522
54	C	0.459806	0.527271	0.646261
55	C	0.447524	0.539732	0.552532
56	C	0.450856	0.541084	0.35609
57	C	0.441155	0.552296	0.216427
58	C	0.443838	0.552975	0.019927
59	C	0.431748	0.565661	0.926623
60	C	0.419985	0.574614	0.052727
61	C	0.405907	0.588036	0.003942
62	C	0.395434	0.588281	0.827021
63	C	0.382838	0.603524	0.824681
64	C	0.384272	0.614388	0
65	S	0.400271	0.606697	0.16462
66	S	0.423848	0.567255	0.283006
67	S	0.469275	0.527229	0.290032
68	C	0.478146	0.480195	0.499679
69	N	0.455994	0.46449	0.404737
70	S	0.455298	0.436515	0.372698
71	N	0.482716	0.442543	0.479962
72	C	0.494104	0.467152	0.544028
73	S	0.548151	0.460876	0.510424
74	S	0.575497	0.424752	0.383103
75	S	0.600691	0.40289	0.047808
76	H	0.636329	0.369737	0.157477
77	H	0.627522	0.389521	0.467547
78	H	0.625035	0.422391	0.667659
79	H	0.602763	0.44452	0.853725
80	H	0.563145	0.445805	0.975787
81	H	0.533317	0.467069	0.000486
82	H	0.543771	0.517526	0.783032
83	H	0.518112	0.538442	0.712058
84	H	0.459362	0.524315	0.799282
85	H	0.436676	0.547261	0.628072
86	H	0.453998	0.544741	0.943762
87	H	0.431935	0.568073	0.773169
88	H	0.396515	0.577849	0.703584
89	H	0.373371	0.60615	0.701014
90	C	0.61393	0.228641	0
91	C	0.618972	0.24388	0.15885
92	C	0.608161	0.228361	0.325984
93	C	0.595374	0.201909	0.288434
94	C	0.582322	0.181142	0.426372
95	C	0.574453	0.183297	0.608273
96	C	0.562424	0.159266	0.709725
97	C	0.56119	0.139009	0.604089
98	C	0.550504	0.112357	0.6662
99	C	0.547736	0.103723	0.852992
100	C	0.536305	0.076216	0.866909
101	C	0.530791	0.064406	0.690136
102	C	0.518775	0.03687	0.645479
103	C	0.493163	0.018865	0.703839
104	C	0.481079	0.992047	0.662843
105	C	0.493522	0.980843	0.559708
106	C	0.48066	0.953148	0.519522
107	C	0.472558	0.932811	0.646261
108	C	0.460116	0.908212	0.552532
109	C	0.458745	0.910174	0.35609
110	C	0.447544	0.889381	0.216427
111	C	0.446852	0.891368	0.019927
112	C	0.434183	0.866736	0.926623
113	C	0.425257	0.846144	0.052727
114	C	0.411859	0.818805	0.003942
115	C	0.411659	0.808163	0.827021
116	C	0.396429	0.780484	0.824681
117	C	0.385527	0.771091	0
118	S	0.393169	0.794631	0.16462
119	S	0.43262	0.857306	0.283006
120	S	0.472558	0.942254	0.290032
121	C	0.519687	0.997888	0.499679
122	N	0.535534	0.991531	0.404737
123	S	0.563592	0.018691	0.372698
124	N	0.557425	0.039909	0.479962
125	C	0.532697	0.026716	0.544028
126	S	0.538751	0.086621	0.510424
127	S	0.574857	0.149734	0.383103
128	S	0.59667	0.196511	0.047808
129	H	0.62976	0.264899	0.157477
130	H	0.609958	0.236459	0.467547
131	H	0.577006	0.201265	0.667659
132	H	0.554912	0.157122	0.853725
133	H	0.553799	0.116511	0.975787
134	H	0.532607	0.065729	0.000486
135	H	0.481959	0.025872	0.783032
136	H	0.461098	0.979575	0.712058
137	H	0.475524	0.935313	0.799282
138	H	0.452613	0.889947	0.628072
139	H	0.455064	0.909653	0.943762
140	H	0.431764	0.864521	0.773169
141	H	0.422116	0.819623	0.703584
142	H	0.393836	0.76847	0.701014
143	C	0.769936	0.385344	0
144	C	0.754632	0.375178	0.15885
145	C	0.770243	0.379895	0.325984
146	C	0.796826	0.393536	0.288434
147	C	0.81771	0.401253	0.426372
148	C	0.815584	0.391296	0.608273
149	C	0.839736	0.403278	0.709725
150	C	0.860057	0.422221	0.604089
151	C	0.886831	0.438146	0.6662
152	C	0.895502	0.443994	0.852992
153	C	0.923138	0.460031	0.866909
154	C	0.935005	0.466314	0.690136
155	C	0.962673	0.4818	0.645479
156	C	0.980842	0.474298	0.703839
157	C	0.00779	0.489001	0.662843
158	C	0.01897	0.512508	0.559708
159	C	0.046801	0.527312	0.519522
160	C	0.067232	0.539515	0.646261
161	C	0.091955	0.551653	0.552532
162	C	0.089994	0.548339	0.35609
163	C	0.110896	0.557921	0.216427
164	C	0.108906	0.555254	0.019927
165	C	0.133664	0.567201	0.926623
166	C	0.154354	0.57884	0.052727
167	C	0.18183	0.592757	0.003942
168	C	0.192502	0.603153	0.827021
169	C	0.220328	0.61559	0.824681
170	C	0.229796	0.614119	0
171	S	0.206155	0.598269	0.16462
172	S	0.143127	0.575037	0.283006
173	S	0.057762	0.530114	0.290032
174	C	0.001761	0.521515	0.499679
175	N	0.008066	0.543576	0.404737
176	S	0.980705	0.544391	0.372698
177	N	0.959454	0.517145	0.479962
178	C	0.972794	0.50573	0.544028
179	S	0.912693	0.452101	0.510424
180	S	0.849241	0.425112	0.383103
181	S	0.802234	0.400196	0.047808
182	H	0.733506	0.364962	0.157477
183	H	0.762114	0.373618	0.467547
184	H	0.797554	0.375942	0.667659
185	H	0.84192	0.397956	0.853725
186	H	0.88265	0.437281	0.975787
187	H	0.933671	0.4668	0.000486
188	H	0.973864	0.456199	0.783032
189	H	0.020385	0.481581	0.712058
190	H	0.064709	0.539969	0.799282
191	H	0.110305	0.562389	0.628072
192	H	0.090532	0.545204	0.943762
193	H	0.135896	0.567004	0.773169
194	H	0.180964	0.602126	0.703584
195	H	0.232388	0.624977	0.701014
