data_C72H36N6O6S12_2023-05-13_11:01:03
#******************************************
#
# CIF file created by Zeo++
# Zeo++ is an open source package to
# analyze microporous materials
#
#*******************************************

_cell_length_a		34.5885   
_cell_length_b		34.8871   
_cell_length_c		7   
_cell_angle_alpha		90   
_cell_angle_beta		90   
_cell_angle_gamma		119.626   

_symmetry_space_group_name_H-M		'P1'
_symmetry_Int_Tables_number		1
_symmetry_cell_setting		Monoclinic

loop_
_symmetry_equiv_pos_as_xyz
'+x,+y,+z'

loop_
_atom_site_label
_atom_site_type_symbol
_atom_site_fract_x
_atom_site_fract_y
_atom_site_fract_z
1	C	0.37812	0.675998	0.999995
2	O	0.41739	0.682859	0.999991
3	C	0.342722	0.630146	0.999998
4	C	0.349704	0.596349	0
5	N	0.393661	0.604252	0
6	C	0.297309	0.622007	3e-06
7	O	0.265492	0.582488	5e-06
8	C	0.286305	0.65727	6e-06
9	C	0.244516	0.64876	5e-06
10	N	0.210073	0.603796	0
11	C	0.323413	0.702755	4e-06
12	O	0.314662	0.733249	7e-06
13	C	0.369553	0.712937	0.999999
14	C	0.402262	0.754433	0.999998
15	N	0.395574	0.791268	0
16	H	0.3226	0.563448	1e-06
17	H	0.235633	0.674018	8e-06
18	H	0.435436	0.760358	0.999997
19	C	0.62188	0.324002	0.999995
20	O	0.58261	0.317141	0.999991
21	C	0.657278	0.369854	0.999998
22	C	0.650296	0.403651	0
23	N	0.606339	0.395748	0
24	C	0.702691	0.377993	3e-06
25	O	0.734508	0.417512	5e-06
26	C	0.713695	0.34273	6e-06
27	C	0.755484	0.35124	5e-06
28	N	0.789927	0.396204	0
29	C	0.676587	0.297245	4e-06
30	O	0.685338	0.266751	7e-06
31	C	0.630447	0.287063	0.999999
32	C	0.597738	0.245567	0.999998
33	N	0.604426	0.208732	0
34	H	0.6774	0.436552	1e-06
35	H	0.764367	0.325982	8e-06
36	H	0.564564	0.239642	0.999997
37	C	0.579431	0.422127	0
38	C	0.548939	0.409583	0.145405
39	C	0.560501	0.444692	0.278446
40	C	0.533046	0.442041	0.462661
41	C	0.494323	0.405077	0.517519
42	C	0.476522	0.412168	0.689278
43	C	0.501548	0.45457	0.75924
44	C	0.493984	0.472927	0.927087
45	C	0.485276	0.506431	0.930586
46	C	0.481412	0.528473	0.766833
47	C	0.507777	0.57222	0.71603
48	C	0.493833	0.583149	0.542438
49	C	0.456573	0.547629	0.466954
50	C	0.433314	0.54915	0.275605
51	C	0.395921	0.513071	0.202817
52	S	0.378481	0.52504	0.993157
53	C	0.420569	0.577873	0
54	C	0.447689	0.587065	0.156375
55	S	0.43853	0.501852	0.606664
56	S	0.547787	0.484522	0.619263
57	C	0.599295	0.482154	0.22645
58	S	0.621385	0.474816	0.019509
59	H	0.519984	0.377093	0.155677
60	H	0.47897	0.374181	0.440187
61	H	0.446218	0.387369	0.756813
62	H	0.494942	0.457976	0.062027
63	H	0.481278	0.518355	0.068611
64	H	0.536403	0.595356	0.798395
65	H	0.510758	0.615618	0.478436
66	H	0.377663	0.480093	0.260814
67	H	0.476219	0.619141	0.183612
68	H	0.616106	0.513688	0.298319
69	C	0.577192	0.155518	0
70	C	0.590026	0.137849	0.145405
71	C	0.554659	0.114424	0.278446
72	C	0.557529	0.089937	0.462661
73	C	0.594964	0.088375	0.517519
74	C	0.587972	0.063755	0.689278
75	C	0.545176	0.04639	0.75924
76	C	0.526786	0.0207	0.927087
77	C	0.493184	0.978846	0.930586
78	C	0.471064	0.953153	0.766833
79	C	0.426906	0.935777	0.71603
80	C	0.416028	0.911156	0.542438
81	C	0.452001	0.909606	0.466954
82	C	0.450647	0.885123	0.275605
83	C	0.487182	0.883996	0.202817
84	S	0.475287	0.854892	0.993157
85	C	0.421881	0.844027	0
86	C	0.41244	0.861691	0.156375
87	S	0.498137	0.937218	0.606664
88	S	0.514731	0.062335	0.619263
89	C	0.516723	0.115561	0.22645
90	S	0.523932	0.144664	0.019509
91	H	0.622891	0.141495	0.155677
92	H	0.626125	0.103875	0.440187
93	H	0.613119	0.058435	0.756813
94	H	0.541803	0.036485	0.062027
95	H	0.481233	0.963063	0.068611
96	H	0.403443	0.941089	0.798395
97	H	0.383274	0.895648	0.478436
98	H	0.520459	0.898694	0.260814
99	H	0.379993	0.858036	0.183612
100	H	0.48491	0.10087	0.298319
101	C	0.842686	0.421671	0
102	C	0.860345	0.451884	0.145405
103	C	0.884149	0.4402	0.278446
104	C	0.908734	0.467338	0.462661
105	C	0.910023	0.505864	0.517519
106	C	0.934815	0.523393	0.689278
107	C	0.952585	0.498356	0.75924
108	C	0.978539	0.505689	0.927087
109	C	0.020849	0.51404	0.930586
110	C	0.046833	0.517691	0.766833
111	C	0.064626	0.49132	0.71603
112	C	0.089448	0.505011	0.542438
113	C	0.090735	0.542081	0.466954
114	C	0.115348	0.565043	0.275605
115	C	0.116206	0.602249	0.202817
116	S	0.145541	0.619385	0.993157
117	C	0.156859	0.577417	0
118	C	0.13918	0.55056	0.156375
119	S	0.062642	0.560246	0.606664
120	S	0.936792	0.452459	0.619263
121	C	0.883291	0.401601	0.22645
122	S	0.853993	0.379837	0.019509
123	H	0.856434	0.480728	0.155677
124	H	0.894213	0.52126	0.440187
125	H	0.939972	0.553512	0.756813
126	H	0.962564	0.504856	0.062027
127	H	0.036798	0.517899	0.068611
128	H	0.059464	0.462872	0.798395
129	H	0.105277	0.48805	0.478436
130	H	0.101187	0.62053	0.260814
131	H	0.143097	0.522139	0.183612
132	H	0.898292	0.384759	0.298319
