data_C90H42N6O6S18_2023-05-15_17:57:35
#******************************************
#
# CIF file created by Zeo++
# Zeo++ is an open source package to
# analyze microporous materials
#
#*******************************************

_cell_length_a		49.4627   
_cell_length_b		49.7612   
_cell_length_c		7   
_cell_angle_alpha		90   
_cell_angle_beta		90   
_cell_angle_gamma		119.738   

_symmetry_space_group_name_H-M		'P1'
_symmetry_Int_Tables_number		1
_symmetry_cell_setting		Monoclinic

loop_
_symmetry_equiv_pos_as_xyz
'+x,+y,+z'

loop_
_atom_site_label
_atom_site_type_symbol
_atom_site_fract_x
_atom_site_fract_y
_atom_site_fract_z
1	C	0.364667	0.673216	0.999995
2	O	0.392139	0.678031	0.999991
3	C	0.339841	0.641034	0.999998
4	C	0.34467	0.617313	0
5	N	0.375421	0.62286	0
6	C	0.308072	0.635322	3e-06
7	O	0.28576	0.607584	5e-06
8	C	0.300433	0.660071	6e-06
9	C	0.271197	0.654099	5e-06
10	N	0.24704	0.62254	0
11	C	0.326454	0.691996	4e-06
12	O	0.320383	0.713399	7e-06
13	C	0.358735	0.699143	0.999999
14	C	0.381673	0.728267	0.999998
15	N	0.377055	0.754121	0
16	H	0.325664	0.59422	1e-06
17	H	0.265025	0.671826	8e-06
18	H	0.404881	0.732426	0.999997
19	C	0.635333	0.326784	0.999995
20	O	0.607861	0.321969	0.999991
21	C	0.660159	0.358966	0.999998
22	C	0.65533	0.382687	0
23	N	0.624579	0.37714	0
24	C	0.691928	0.364678	3e-06
25	O	0.71424	0.392416	5e-06
26	C	0.699567	0.339929	6e-06
27	C	0.728803	0.345901	5e-06
28	N	0.75296	0.37746	0
29	C	0.673546	0.308004	4e-06
30	O	0.679617	0.286601	7e-06
31	C	0.641265	0.300857	0.999999
32	C	0.618327	0.271733	0.999998
33	N	0.622945	0.245879	0
34	H	0.674336	0.40578	1e-06
35	H	0.734975	0.328174	8e-06
36	H	0.595119	0.267574	0.999997
37	C	0.394195	0.604345	0
38	C	0.408394	0.590342	0.90856
39	C	0.421023	0.577888	0.042754
40	C	0.416001	0.582841	0.231398
41	C	0.425479	0.573494	0.403537
42	C	0.420478	0.578426	0.591408
43	C	0.433136	0.565944	0.724978
44	C	0.447721	0.55156	0.638337
45	C	0.462863	0.536627	0.733483
46	C	0.465511	0.534017	0.928401
47	C	0.481786	0.517966	0.976519
48	C	0.491481	0.508404	0.818089
49	C	0.508521	0.491598	0.81809
50	C	0.518216	0.482036	0.976519
51	C	0.534491	0.465985	0.928401
52	C	0.537139	0.463375	0.733482
53	C	0.552281	0.448442	0.638336
54	C	0.566866	0.434058	0.724977
55	C	0.579524	0.421575	0.591407
56	C	0.574522	0.426507	0.403536
57	C	0.584	0.417159	0.231397
58	C	0.578977	0.422112	0.042753
59	C	0.591606	0.409658	0.90856
60	C	0.605805	0.395655	0
61	S	0.604231	0.397208	0.240634
62	S	0.554394	0.446356	0.39446
63	S	0.519589	0.480684	0.613258
64	S	0.480413	0.519318	0.613258
65	S	0.445606	0.553644	0.39446
66	S	0.39577	0.602792	0.240635
67	H	0.409843	0.588913	0.754867
68	H	0.433259	0.565821	0.000593
69	H	0.408257	0.590479	0.634047
70	H	0.43139	0.567666	0.87819
71	H	0.456257	0.543145	0.034385
72	H	0.486015	0.513797	0.122378
73	H	0.513988	0.486205	0.122378
74	H	0.543746	0.456858	0.034384
75	H	0.568612	0.432337	0.878189
76	H	0.591744	0.409523	0.634048
77	H	0.566741	0.434179	0.000592
78	H	0.590156	0.411087	0.754867
79	C	0.395535	0.791151	0
80	C	0.40951	0.819156	0.90856
81	C	0.42194	0.844065	0.042754
82	C	0.416996	0.834159	0.231398
83	C	0.426325	0.852854	0.403537
84	C	0.421402	0.842989	0.591408
85	C	0.433861	0.867955	0.724978
86	C	0.448217	0.896723	0.638337
87	C	0.463121	0.926589	0.733483
88	C	0.465725	0.93181	0.928401
89	C	0.481745	0.963911	0.976519
90	C	0.491289	0.983035	0.818089
91	C	0.508062	0.016645	0.81809
92	C	0.517605	0.035769	0.976519
93	C	0.533625	0.067871	0.928401
94	C	0.53623	0.073091	0.733482
95	C	0.551134	0.102957	0.638336
96	C	0.56549	0.131726	0.724977
97	C	0.577949	0.156692	0.591407
98	C	0.573026	0.146826	0.403536
99	C	0.582356	0.165522	0.231397
100	C	0.577413	0.155616	0.042753
101	C	0.589843	0.180524	0.90856
102	C	0.603818	0.208529	0
103	S	0.602268	0.205424	0.240634
104	S	0.553215	0.107128	0.39446
105	S	0.518955	0.038475	0.613258
106	S	0.480396	0.961206	0.613258
107	S	0.446136	0.892553	0.39446
108	S	0.397084	0.794256	0.240635
109	H	0.410936	0.822015	0.754867
110	H	0.433983	0.868199	0.000593
111	H	0.409374	0.818885	0.634047
112	H	0.432142	0.864511	0.87819
113	H	0.456615	0.913556	0.034385
114	H	0.485906	0.972251	0.122378
115	H	0.513444	0.027429	0.122378
116	H	0.542735	0.086124	0.034384
117	H	0.567208	0.135169	0.878189
118	H	0.589977	0.180796	0.634048
119	H	0.565369	0.131482	0.000592
120	H	0.588417	0.177666	0.754867
121	C	0.209787	0.604025	0
122	C	0.181613	0.590022	0.90856
123	C	0.156554	0.577568	0.042754
124	C	0.16652	0.58252	0.231398
125	C	0.147712	0.573172	0.403537
126	C	0.157636	0.578105	0.591408
127	C	0.13252	0.565622	0.724978
128	C	0.103579	0.551238	0.638337
129	C	0.073533	0.536304	0.733483
130	C	0.068281	0.533693	0.928401
131	C	0.035986	0.517643	0.976519
132	C	0.016747	0.508081	0.818089
133	C	0.982934	0.491277	0.81809
134	C	0.963695	0.481715	0.976519
135	C	0.9314	0.465665	0.928401
136	C	0.926148	0.463054	0.733482
137	C	0.896102	0.448121	0.638336
138	C	0.86716	0.433736	0.724977
139	C	0.842044	0.421254	0.591407
140	C	0.851969	0.426187	0.403536
141	C	0.833161	0.416839	0.231397
142	C	0.843126	0.421793	0.042753
143	C	0.818068	0.409338	0.90856
144	C	0.789894	0.395335	0
145	S	0.793018	0.396888	0.240634
146	S	0.891907	0.446036	0.39446
147	S	0.960973	0.480362	0.613258
148	S	0.038708	0.518997	0.613258
149	S	0.107774	0.553323	0.39446
150	S	0.206663	0.602472	0.240635
151	H	0.178737	0.588593	0.754867
152	H	0.132275	0.5655	0.000593
153	H	0.181886	0.590157	0.634047
154	H	0.135984	0.567343	0.87819
155	H	0.086644	0.54282	0.034385
156	H	0.027595	0.513472	0.122378
157	H	0.972085	0.485885	0.122378
158	H	0.913036	0.456538	0.034384
159	H	0.863696	0.432015	0.878189
160	H	0.817795	0.409202	0.634048
161	H	0.867406	0.43386	0.000592
162	H	0.820944	0.410768	0.754867
