data_C102H66N6O6_2023-05-11_00:17:43
#******************************************
#
# CIF file created by Zeo++
# Zeo++ is an open source package to
# analyze microporous materials
#
#*******************************************

_cell_length_a		47.8149   
_cell_length_b		48.1134   
_cell_length_c		7   
_cell_angle_alpha		90   
_cell_angle_beta		90   
_cell_angle_gamma		119.729   

_symmetry_space_group_name_H-M		'P1'
_symmetry_Int_Tables_number		1
_symmetry_cell_setting		Monoclinic

loop_
_symmetry_equiv_pos_as_xyz
'+x,+y,+z'

loop_
_atom_site_label
_atom_site_type_symbol
_atom_site_fract_x
_atom_site_fract_y
_atom_site_fract_z
1	C	0.365746	0.673439	0.999995
2	O	0.394163	0.67842	0.999991
3	C	0.34007	0.640158	0.999998
4	C	0.34507	0.615627	0
5	N	0.37688	0.621364	0
6	C	0.307207	0.634251	3e-06
7	O	0.284131	0.605566	5e-06
8	C	0.2993	0.659846	6e-06
9	C	0.269058	0.65367	5e-06
10	N	0.244074	0.621033	0
11	C	0.326212	0.692861	4e-06
12	O	0.319927	0.714995	7e-06
13	C	0.359604	0.700252	0.999999
14	C	0.383327	0.730371	0.999998
15	N	0.378546	0.757108	0
16	H	0.325414	0.591746	1e-06
17	H	0.26267	0.672003	8e-06
18	H	0.407334	0.734672	0.999997
19	C	0.634254	0.326561	0.999995
20	O	0.605837	0.32158	0.999991
21	C	0.65993	0.359842	0.999998
22	C	0.65493	0.384373	0
23	N	0.62312	0.378636	0
24	C	0.692793	0.365749	3e-06
25	O	0.715869	0.394434	5e-06
26	C	0.7007	0.340154	6e-06
27	C	0.730942	0.34633	5e-06
28	N	0.755926	0.378967	0
29	C	0.673788	0.307139	4e-06
30	O	0.680073	0.285005	7e-06
31	C	0.640396	0.299748	0.999999
32	C	0.616673	0.269629	0.999998
33	N	0.621454	0.242892	0
34	H	0.674586	0.408254	1e-06
35	H	0.73733	0.327997	8e-06
36	H	0.592666	0.265328	0.999997
37	C	0.396304	0.602216	0
38	C	0.413105	0.588623	0.916849
39	C	0.427032	0.575032	0.032656
40	C	0.424399	0.57479	0.232593
41	C	0.439019	0.560576	0.355042
42	C	0.455101	0.545485	0.301673
43	C	0.465723	0.53518	0.467804
44	C	0.483617	0.51772	0.469546
45	C	0.510043	0.52685	0.590929
46	C	0.527036	0.5101	0.59093
47	C	0.517968	0.48386	0.469548
48	C	0.535683	0.46622	0.467806
49	C	0.544677	0.456646	0.625171
50	C	0.561887	0.438896	0.570444
51	C	0.561451	0.439893	0.355044
52	C	0.575872	0.42548	0.232594
53	C	0.590025	0.408632	0.312658
54	C	0.603842	0.394849	0.19755
55	C	0.603696	0.397784	0
56	C	0.589886	0.414358	0.916849
57	C	0.576099	0.428088	0.032656
58	C	0.546137	0.455749	0.301674
59	C	0.49161	0.474796	0.347779
60	C	0.474617	0.491547	0.347779
61	C	0.456012	0.544041	0.625169
62	C	0.43801	0.561	0.570442
63	C	0.40732	0.588722	0.312656
64	C	0.393339	0.602342	0.197548
65	H	0.415593	0.588429	0.76261
66	H	0.440044	0.564699	0.962671
67	H	0.460219	0.54126	0.157824
68	H	0.517895	0.547324	0.6855
69	H	0.547651	0.517995	0.6855
70	H	0.540083	0.460488	0.771099
71	H	0.586492	0.451148	0.626654
72	H	0.548838	0.414327	0.62455
73	H	0.590581	0.405827	0.466481
74	H	0.614584	0.381947	0.2639
75	H	0.589674	0.41682	0.762609
76	H	0.565599	0.440925	0.962671
77	H	0.541845	0.460797	0.157826
78	H	0.483804	0.454369	0.252852
79	H	0.454049	0.483699	0.252852
80	H	0.459914	0.539509	0.771097
81	H	0.413291	0.547933	0.624543
82	H	0.450236	0.585453	0.626658
83	H	0.404484	0.589255	0.466479
84	H	0.380261	0.612915	0.263898
85	C	0.397655	0.795403	0
86	C	0.411204	0.825573	0.916849
87	C	0.424766	0.852893	0.032656
88	C	0.425024	0.850524	0.232593
89	C	0.439208	0.879151	0.355042
90	C	0.454265	0.910099	0.301673
91	C	0.464548	0.930874	0.467804
92	C	0.481972	0.965975	0.469546
93	C	0.472666	0.983084	0.590929
94	C	0.489382	0.016585	0.59093
95	C	0.515764	0.033695	0.469548
96	C	0.533369	0.068795	0.467806
97	C	0.542928	0.087232	0.625171
98	C	0.560646	0.121942	0.570444
99	C	0.559648	0.120519	0.355044
100	C	0.574033	0.149146	0.232594
101	C	0.590863	0.179928	0.312658
102	C	0.604619	0.207331	0.19755
103	C	0.601675	0.204267	0
104	C	0.585118	0.174096	0.916849
105	C	0.571415	0.146777	0.032656
106	C	0.54382	0.089571	0.301674
107	C	0.525003	0.016586	0.347779
108	C	0.508286	0.983084	0.347779
109	C	0.455709	0.912438	0.625169
110	C	0.438788	0.877728	0.570442
111	C	0.411136	0.819741	0.312656
112	C	0.397545	0.792339	0.197548
113	H	0.411385	0.828232	0.76261
114	H	0.435065	0.876066	0.962671
115	H	0.458477	0.919372	0.157824
116	H	0.452077	0.970504	0.6855
117	H	0.481348	0.029165	0.6855
118	H	0.539097	0.078858	0.771099
119	H	0.548217	0.134142	0.626654
120	H	0.585373	0.133445	0.62455
121	H	0.593676	0.18327	0.466481
122	H	0.617508	0.230809	0.2639
123	H	0.582648	0.171437	0.762609
124	H	0.55859	0.123603	0.962671
125	H	0.538778	0.080297	0.157826
126	H	0.545544	0.029165	0.252852
127	H	0.516274	0.970505	0.252852
128	H	0.460236	0.920812	0.771097
129	H	0.452035	0.866225	0.624543
130	H	0.414183	0.865527	0.626658
131	H	0.410617	0.8164	0.466479
132	H	0.387005	0.768861	0.263898
133	C	0.205541	0.601885	0
134	C	0.175191	0.585308	0.916849
135	C	0.147701	0.571579	0.032656
136	C	0.150077	0.57419	0.232593
137	C	0.121272	0.559777	0.355042
138	C	0.090134	0.543921	0.301673
139	C	0.069229	0.533449	0.467804
140	C	0.03391	0.515809	0.469546
141	C	0.016792	0.48957	0.590929
142	C	0.983082	0.472819	0.59093
143	C	0.965768	0.481949	0.469548
144	C	0.930448	0.464488	0.467806
145	C	0.911895	0.455626	0.625171
146	C	0.876967	0.438666	0.570444
147	C	0.8784	0.439092	0.355044
148	C	0.849595	0.424878	0.232594
149	C	0.818612	0.410943	0.312658
150	C	0.791038	0.397324	0.19755
151	C	0.794129	0.397453	0
152	C	0.824496	0.41105	0.916849
153	C	0.851986	0.424639	0.032656
154	C	0.909543	0.454184	0.301674
155	C	0.982887	0.508121	0.347779
156	C	0.016598	0.524873	0.347779
157	C	0.087778	0.543025	0.625169
158	C	0.122702	0.560775	0.570442
159	C	0.181043	0.591041	0.312656
160	C	0.208616	0.604823	0.197548
161	H	0.172522	0.582843	0.76261
162	H	0.124391	0.558739	0.962671
163	H	0.080804	0.538872	0.157824
164	H	0.029528	0.481675	0.6855
165	H	0.970502	0.452345	0.6855
166	H	0.920319	0.460158	0.771099
167	H	0.864791	0.414213	0.626654
168	H	0.865288	0.451732	0.62455
169	H	0.815244	0.410408	0.466481
170	H	0.767408	0.386748	0.2639
171	H	0.827177	0.411246	0.762609
172	H	0.87531	0.434975	0.962671
173	H	0.918877	0.45841	0.157826
174	H	0.970152	0.51597	0.252852
175	H	0.029177	0.5453	0.252852
176	H	0.07935	0.539183	0.771097
177	H	0.134173	0.585345	0.624543
178	H	0.13508	0.548524	0.626658
179	H	0.184399	0.593849	0.466479
180	H	0.232234	0.617728	0.263898
