data_C114H54N6O6S12_2023-05-13_07:04:43
#******************************************
#
# CIF file created by Zeo++
# Zeo++ is an open source package to
# analyze microporous materials
#
#*******************************************

_cell_length_a		50.1954   
_cell_length_b		50.4939   
_cell_length_c		7   
_cell_angle_alpha		90   
_cell_angle_beta		90   
_cell_angle_gamma		119.742   

_symmetry_space_group_name_H-M		'P1'
_symmetry_Int_Tables_number		1
_symmetry_cell_setting		Monoclinic

loop_
_symmetry_equiv_pos_as_xyz
'+x,+y,+z'

loop_
_atom_site_label
_atom_site_type_symbol
_atom_site_fract_x
_atom_site_fract_y
_atom_site_fract_z
1	C	0.36421	0.673121	0.999995
2	O	0.391281	0.677867	0.999991
3	C	0.339744	0.641405	0.999998
4	C	0.344501	0.618027	0
5	N	0.374803	0.623494	0
6	C	0.308438	0.635775	3e-06
7	O	0.28645	0.608439	5e-06
8	C	0.300912	0.660167	6e-06
9	C	0.272103	0.654281	5e-06
10	N	0.248296	0.623178	0
11	C	0.326556	0.69163	4e-06
12	O	0.320575	0.712723	7e-06
13	C	0.358366	0.698673	0.999999
14	C	0.380972	0.727376	0.999998
15	N	0.376424	0.752855	0
16	H	0.325771	0.595269	1e-06
17	H	0.266023	0.671752	8e-06
18	H	0.403841	0.731474	0.999997
19	C	0.63579	0.326879	0.999995
20	O	0.608719	0.322133	0.999991
21	C	0.660256	0.358595	0.999998
22	C	0.655499	0.381973	0
23	N	0.625197	0.376506	0
24	C	0.691562	0.364225	3e-06
25	O	0.71355	0.391561	5e-06
26	C	0.699088	0.339833	6e-06
27	C	0.727897	0.345719	5e-06
28	N	0.751704	0.376822	0
29	C	0.673444	0.30837	4e-06
30	O	0.679425	0.287277	7e-06
31	C	0.641634	0.301327	0.999999
32	C	0.619028	0.272624	0.999998
33	N	0.623576	0.247145	0
34	H	0.674229	0.404731	1e-06
35	H	0.733977	0.328248	8e-06
36	H	0.596159	0.268526	0.999997
37	C	0.606698	0.394753	0
38	C	0.603802	0.368771	0.081767
39	S	0.576465	0.355441	0.257279
40	C	0.56873	0.384528	0.222481
41	C	0.544092	0.3885	0.33947
42	C	0.526374	0.368715	0.481816
43	S	0.501761	0.379027	0.582314
44	C	0.514504	0.410086	0.435662
45	C	0.501236	0.430139	0.451574
46	C	0.512602	0.452415	0.595169
47	C	0.501378	0.472519	0.615721
48	C	0.478635	0.470871	0.492876
49	C	0.467476	0.491117	0.513906
50	C	0.444806	0.48966	0.391955
51	C	0.432369	0.467925	0.243876
52	C	0.409258	0.465772	0.116966
53	C	0.396917	0.486661	0.127728
54	C	0.409357	0.515956	0.056872
55	C	0.390628	0.529285	0.095736
56	C	0.398373	0.562418	0.034899
57	C	0.380137	0.575145	0.072936
58	C	0.393302	0.605247	0
59	C	0.420812	0.614852	0.909296
60	S	0.430891	0.587069	0.912309
61	C	0.364468	0.509485	0.19455
62	S	0.362613	0.47528	0.239714
63	C	0.397903	0.443501	0.973332
64	C	0.408983	0.423267	0.953568
65	C	0.431719	0.42491	0.076447
66	C	0.442773	0.404568	0.055998
67	C	0.465471	0.40605	0.177797
68	C	0.478076	0.427939	0.324935
69	C	0.466795	0.448608	0.34653
70	C	0.443617	0.447227	0.222466
71	C	0.537198	0.412499	0.313327
72	C	0.586677	0.404075	0.0795
73	H	0.616187	0.356918	0.048253
74	H	0.526415	0.348564	0.53359
75	H	0.530373	0.454199	0.692078
76	H	0.510621	0.489523	0.728777
77	H	0.476245	0.50832	0.62593
78	H	0.436833	0.505896	0.415258
79	H	0.431017	0.527137	0.980987
80	H	0.35853	0.56359	0.148803
81	H	0.435503	0.636579	0.841634
82	H	0.346059	0.513009	0.243726
83	H	0.38028	0.441851	0.875607
84	H	0.399667	0.4062	0.840903
85	H	0.433813	0.387197	0.945008
86	H	0.473128	0.389531	0.156223
87	H	0.548115	0.430773	0.210077
88	H	0.585558	0.423988	0.034109
89	C	0.604726	0.210336	0
90	C	0.63081	0.233312	0.081767
91	S	0.644327	0.219467	0.257279
92	C	0.615183	0.182863	0.222481
93	C	0.611325	0.154481	0.33947
94	C	0.631269	0.156597	0.481816
95	S	0.62105	0.121934	0.582314
96	C	0.58982	0.10367	0.435662
97	C	0.569769	0.070567	0.451574
98	C	0.54736	0.059675	0.595169
99	C	0.527246	0.028547	0.615721
100	C	0.529018	0.007637	0.492876
101	C	0.508762	0.976431	0.513906
102	C	0.510342	0.955402	0.391955
103	C	0.532214	0.964693	0.243876
104	C	0.534495	0.94392	0.116966
105	C	0.513599	0.910903	0.127728
106	C	0.484142	0.894096	0.056872
107	C	0.470866	0.862265	0.095736
108	C	0.437582	0.836983	0.034899
109	C	0.424907	0.806242	0.072936
110	C	0.394636	0.789349	0
111	C	0.384855	0.80707	0.909296
112	S	0.41268	0.844703	0.912309
113	C	0.490868	0.856025	0.19455
114	S	0.525197	0.888212	0.239714
115	C	0.556899	0.954817	0.973332
116	C	0.577143	0.985932	0.953568
117	C	0.575377	0.006841	0.076447
118	C	0.595729	0.038038	0.055998
119	C	0.594125	0.059069	0.177797
120	C	0.572097	0.049791	0.324935
121	C	0.551418	0.018045	0.34653
122	C	0.552924	0.996437	0.222466
123	C	0.587282	0.123772	0.313327
124	C	0.595477	0.181212	0.0795
125	H	0.642639	0.257384	0.048253
126	H	0.651486	0.176683	0.53359
127	H	0.545477	0.075522	0.692078
128	H	0.510137	0.020796	0.728777
129	H	0.491456	0.968013	0.62593
130	H	0.494093	0.931346	0.415258
131	H	0.472811	0.904448	0.980987
132	H	0.436612	0.796312	0.148803
133	H	0.36298	0.800022	0.841634
134	H	0.487428	0.834266	0.243726
135	H	0.558646	0.938985	0.875607
136	H	0.594315	0.993673	0.840903
137	H	0.613204	0.046434	0.945008
138	H	0.610659	0.083094	0.156223
139	H	0.568889	0.116416	0.210077
140	H	0.575503	0.160292	0.034109
141	C	0.7881	0.394438	0
142	C	0.764911	0.397444	0.081767
143	S	0.778732	0.424619	0.257279
144	C	0.81561	0.432137	0.222481
145	C	0.844107	0.456545	0.33947
146	C	0.841881	0.474216	0.481816
147	S	0.876713	0.498566	0.582314
148	C	0.8952	0.485771	0.435662
149	C	0.928518	0.498821	0.451574
150	C	0.939562	0.487437	0.595169
151	C	0.970899	0.498461	0.615721
152	C	0.99187	0.521019	0.492876
153	C	0.023286	0.531979	0.513906
154	C	0.044376	0.554465	0.391955
155	C	0.034941	0.566909	0.243876
156	C	0.055771	0.589835	0.116966
157	C	0.089008	0.601963	0.127728
158	C	0.106024	0.589476	0.056872
159	C	0.13803	0.607977	0.095736
160	C	0.163569	0.600126	0.034899
161	C	0.194479	0.618141	0.072936
162	C	0.211585	0.604931	0
163	C	0.193856	0.577604	0.909296
164	S	0.155953	0.567756	0.912309
165	C	0.144188	0.634018	0.19455
166	S	0.111714	0.636035	0.239714
167	C	0.044722	0.601209	0.973332
168	C	0.013398	0.590328	0.953568
169	C	0.992428	0.567776	0.076447
170	C	0.961021	0.556921	0.055998
171	C	0.939928	0.534409	0.177797
172	C	0.949351	0.521797	0.324935
173	C	0.981311	0.532875	0.34653
174	C	0.002983	0.555864	0.222466
175	C	0.875044	0.463256	0.313327
176	C	0.81737	0.414241	0.0795
177	H	0.740697	0.385225	0.048253
178	H	0.821622	0.47428	0.53359
179	H	0.923673	0.469807	0.692078
180	H	0.978765	0.489208	0.728777
181	H	0.031822	0.523195	0.62593
182	H	0.068598	0.562286	0.415258
183	H	0.095696	0.567942	0.980987
184	H	0.204381	0.639625	0.148803
185	H	0.201041	0.562926	0.841634
186	H	0.166036	0.652252	0.243726
187	H	0.060598	0.618691	0.875607
188	H	0.005541	0.599654	0.840903
189	H	0.952507	0.565896	0.945008
190	H	0.915736	0.526902	0.156223
191	H	0.88252	0.452337	0.210077
192	H	0.838462	0.415247	0.034109
