data_C60H39N9O6_2023-05-23_19:05:16
#******************************************
#
# CIF file created by Zeo++
# Zeo++ is an open source package to
# analyze microporous materials
#
#*******************************************

_cell_length_a		35.0366   
_cell_length_b		35.3352   
_cell_length_c		7   
_cell_angle_alpha		90   
_cell_angle_beta		90   
_cell_angle_gamma		119.631   

_symmetry_space_group_name_H-M		'P1'
_symmetry_Int_Tables_number		1
_symmetry_cell_setting		Monoclinic

loop_
_symmetry_equiv_pos_as_xyz
'+x,+y,+z'

loop_
_atom_site_label
_atom_site_type_symbol
_atom_site_fract_x
_atom_site_fract_y
_atom_site_fract_z
1	C	0.377549	0.67588	0.999995
2	O	0.416317	0.682654	0.999991
3	C	0.342599	0.630607	0.999998
4	C	0.349488	0.597237	0
5	N	0.392884	0.605041	0
6	C	0.297766	0.622572	3e-06
7	O	0.266352	0.583551	5e-06
8	C	0.286906	0.657389	6e-06
9	C	0.245651	0.648987	5e-06
10	N	0.211644	0.604591	0
11	C	0.323543	0.702299	4e-06
12	O	0.314907	0.732408	7e-06
13	C	0.369094	0.712353	0.999999
14	C	0.401388	0.753324	0.999998
15	N	0.39479	0.789694	0
16	H	0.322728	0.564752	1e-06
17	H	0.236884	0.673925	8e-06
18	H	0.434139	0.759174	0.999997
19	C	0.622451	0.32412	0.999995
20	O	0.583683	0.317346	0.999991
21	C	0.657401	0.369393	0.999998
22	C	0.650512	0.402763	0
23	N	0.607116	0.394959	0
24	C	0.702234	0.377428	3e-06
25	O	0.733648	0.416449	5e-06
26	C	0.713094	0.342611	6e-06
27	C	0.754349	0.351013	5e-06
28	N	0.788356	0.395409	0
29	C	0.676457	0.297701	4e-06
30	O	0.685093	0.267592	7e-06
31	C	0.630906	0.287647	0.999999
32	C	0.598612	0.246676	0.999998
33	N	0.60521	0.210306	0
34	H	0.677272	0.435248	1e-06
35	H	0.763116	0.326075	8e-06
36	H	0.565861	0.240826	0.999997
37	C	0.580555	0.421005	0
38	C	0.57464	0.426775	0.81568
39	C	0.550735	0.450198	0.802657
40	C	0.541928	0.458854	0.978984
41	C	0.519322	0.481019	0.035788
42	C	0.511621	0.488588	0.221039
43	N	0.488839	0.510925	0.215852
44	C	0.481553	0.51805	0.029634
45	C	0.458392	0.540762	0.994077
46	C	0.450178	0.548739	0.81487
47	C	0.426255	0.572225	0.818408
48	C	0.419445	0.578995	0
49	C	0.438998	0.559864	0.132453
50	C	0.50031	0.499645	0.915527
51	C	0.560337	0.440834	0.125632
52	H	0.585644	0.415976	0.694088
53	H	0.541768	0.458967	0.669124
54	H	0.520164	0.480226	0.356994
55	H	0.479	0.520584	0.332787
56	H	0.459551	0.539476	0.683503
57	H	0.41589	0.582341	0.692535
58	H	0.464675	0.584922	0.222106
59	H	0.413859	0.534363	0.222417
60	H	0.500284	0.499657	0.760943
61	H	0.585246	0.466699	0.215079
62	H	0.534361	0.416041	0.215171
63	C	0.578319	0.157764	0
64	C	0.572566	0.146194	0.81568
65	C	0.549208	0.099329	0.802657
66	C	0.540575	0.082036	0.978984
67	C	0.518471	0.037703	0.035788
68	C	0.510923	0.022583	0.221039
69	N	0.488647	0.977906	0.215852
70	C	0.481542	0.963635	0.029634
71	C	0.458893	0.918211	0.994077
72	C	0.450938	0.902178	0.81487
73	C	0.427517	0.855234	0.818408
74	C	0.420765	0.841786	0
75	C	0.439842	0.880091	0.132453
76	C	0.499897	0.000434	0.915527
77	C	0.558545	0.11811	0.125632
78	H	0.583335	0.167784	0.694088
79	H	0.540463	0.081767	0.669124
80	H	0.519261	0.039323	0.356994
81	H	0.479015	0.958598	0.332787
82	H	0.460176	0.920632	0.683503
83	H	0.417429	0.834953	0.692535
84	H	0.414474	0.880586	0.222106
85	H	0.465652	0.880568	0.222417
86	H	0.499885	0.000397	0.760943
87	H	0.532372	0.117044	0.215079
88	H	0.58365	0.117057	0.215171
89	C	0.840443	0.420555	0
90	C	0.852112	0.426356	0.81568
91	C	0.899375	0.449798	0.802657
92	C	0.916815	0.458435	0.978984
93	C	0.961525	0.480603	0.035788
94	C	0.976774	0.488154	0.221039
95	N	0.021831	0.510494	0.215852
96	C	0.036223	0.51764	0.029634
97	C	0.082033	0.540352	0.994077
98	C	0.098202	0.548407	0.81487
99	C	0.145546	0.571867	0.818408
100	C	0.159108	0.578544	0
101	C	0.120478	0.55937	0.132453
102	C	0.999111	0.499246	0.915527
103	C	0.880435	0.440381	0.125632
104	H	0.830338	0.415565	0.694088
105	H	0.917087	0.458592	0.669124
106	H	0.959892	0.479776	0.356994
107	H	0.041303	0.520143	0.332787
108	H	0.079591	0.539217	0.683503
109	H	0.165999	0.582031	0.692535
110	H	0.120169	0.533818	0.222106
111	H	0.119807	0.584394	0.222417
112	H	0.999149	0.499272	0.760943
113	H	0.8817	0.415582	0.215079
114	H	0.881307	0.466227	0.215171
