data_C84H36N12O6S15_2023-05-28_19:20:46
#******************************************
#
# CIF file created by Zeo++
# Zeo++ is an open source package to
# analyze microporous materials
#
#*******************************************

_cell_length_a		48.2999   
_cell_length_b		48.5984   
_cell_length_c		7   
_cell_angle_alpha		90   
_cell_angle_beta		90   
_cell_angle_gamma		119.732   

_symmetry_space_group_name_H-M		'P1'
_symmetry_Int_Tables_number		1
_symmetry_cell_setting		Monoclinic

loop_
_symmetry_equiv_pos_as_xyz
'+x,+y,+z'

loop_
_atom_site_label
_atom_site_type_symbol
_atom_site_fract_x
_atom_site_fract_y
_atom_site_fract_z
1	C	0.365421	0.673372	0.999995
2	O	0.393553	0.678303	0.999991
3	C	0.340001	0.640422	0.999998
4	C	0.344949	0.616135	0
5	N	0.37644	0.621814	0
6	C	0.307467	0.634574	3e-06
7	O	0.284622	0.606174	5e-06
8	C	0.299641	0.659914	6e-06
9	C	0.269703	0.653799	5e-06
10	N	0.244968	0.621487	0
11	C	0.326285	0.692601	4e-06
12	O	0.320065	0.714514	7e-06
13	C	0.359342	0.699918	0.999999
14	C	0.382829	0.729737	0.999998
15	N	0.378097	0.756208	0
16	H	0.325489	0.592492	1e-06
17	H	0.26338	0.671949	8e-06
18	H	0.406595	0.733995	0.999997
19	C	0.634579	0.326628	0.999995
20	O	0.606447	0.321697	0.999991
21	C	0.659999	0.359578	0.999998
22	C	0.655051	0.383865	0
23	N	0.62356	0.378186	0
24	C	0.692533	0.365426	3e-06
25	O	0.715378	0.393826	5e-06
26	C	0.700359	0.340086	6e-06
27	C	0.730297	0.346201	5e-06
28	N	0.755032	0.378513	0
29	C	0.673715	0.307399	4e-06
30	O	0.679935	0.285486	7e-06
31	C	0.640658	0.300082	0.999999
32	C	0.617171	0.270263	0.999998
33	N	0.621903	0.243792	0
34	H	0.674511	0.407508	1e-06
35	H	0.73662	0.328051	8e-06
36	H	0.593405	0.266005	0.999997
37	C	0.604331	0.397143	0
38	C	0.593292	0.408014	0.854939
39	C	0.577276	0.423804	0.928435
40	C	0.576685	0.424398	0.126622
41	C	0.562615	0.438274	0.248946
42	C	0.562032	0.438864	0.445963
43	C	0.546005	0.454668	0.518811
44	C	0.534293	0.466201	0.378144
45	C	0.516531	0.483711	0.392883
46	C	0.506107	0.493991	0.233425
47	C	0.489097	0.510761	0.244635
48	C	0.480215	0.519514	0.416812
49	C	0.462428	0.537052	0.42545
50	C	0.452099	0.547245	0.580536
51	C	0.435497	0.56361	0.528905
52	C	0.433081	0.565982	0.3338
53	C	0.417726	0.581118	0.235287
54	C	0.402597	0.59604	0.318885
55	C	0.38981	0.608643	0.182713
56	C	0.395669	0.602857	0
57	S	0.41595	0.582858	0.989765
58	S	0.451208	0.548102	0.218114
59	C	0.489962	0.509902	0.585168
60	N	0.48482	0.514968	0.767525
61	S	0.500711	0.499299	0.90771
62	N	0.515201	0.485016	0.747506
63	C	0.508403	0.491722	0.573014
64	S	0.543516	0.457089	0.157338
65	S	0.595896	0.405469	0.219541
66	H	0.596323	0.405019	0.704502
67	H	0.566716	0.434209	0.837831
68	H	0.572551	0.428504	0.537257
69	H	0.543536	0.457115	0.670591
70	H	0.511095	0.489077	0.089306
71	H	0.482796	0.516975	0.107963
72	H	0.455975	0.543432	0.728132
73	H	0.425893	0.573085	0.633217
74	H	0.400616	0.598	0.471795
75	H	0.377157	0.621121	0.218807
76	C	0.602321	0.205551	0
77	C	0.591471	0.183796	0.854939
78	C	0.575712	0.152216	0.928435
79	C	0.575119	0.15104	0.126622
80	C	0.561271	0.123293	0.248946
81	C	0.560682	0.122128	0.445963
82	C	0.54491	0.090524	0.518811
83	C	0.5334	0.067444	0.378144
84	C	0.515925	0.032423	0.392883
85	C	0.505665	0.011866	0.233425
86	C	0.488929	0.978326	0.244635
87	C	0.480193	0.960817	0.416812
88	C	0.46269	0.925743	0.42545
89	C	0.452517	0.905367	0.580536
90	C	0.436185	0.872635	0.528905
91	C	0.433817	0.86788	0.3338
92	C	0.418712	0.837606	0.235287
93	C	0.403819	0.807769	0.318885
94	C	0.391242	0.78256	0.182713
95	C	0.397016	0.794122	0
96	S	0.416976	0.834116	0.989765
97	S	0.451663	0.903632	0.218114
98	C	0.489786	0.980038	0.585168
99	N	0.48473	0.969903	0.767525
100	S	0.500368	0.001239	0.90771
101	N	0.514622	0.029806	0.747506
102	C	0.50793	0.016399	0.573014
103	S	0.542494	0.085649	0.157338
104	S	0.594011	0.188909	0.219541
105	H	0.594461	0.18978	0.704502
106	H	0.565329	0.131401	0.837831
107	H	0.571022	0.142858	0.537257
108	H	0.542468	0.085642	0.670591
109	H	0.510569	0.021697	0.089306
110	H	0.482727	0.9659	0.107963
111	H	0.456323	0.913001	0.728132
112	H	0.426728	0.853691	0.633217
113	H	0.401863	0.803856	0.471795
114	H	0.378788	0.757607	0.218807
115	C	0.792853	0.396815	0
116	C	0.814742	0.407698	0.854939
117	C	0.846517	0.423488	0.928435
118	C	0.847701	0.424071	0.126622
119	C	0.875619	0.437942	0.248946
120	C	0.876791	0.438516	0.445963
121	C	0.90859	0.454317	0.518811
122	C	0.931812	0.465864	0.378144
123	C	0.967049	0.483375	0.392883
124	C	0.987733	0.493651	0.233425
125	C	0.021479	0.510421	0.244635
126	C	0.039097	0.519178	0.416812
127	C	0.074387	0.536714	0.42545
128	C	0.094889	0.546897	0.580536
129	C	0.127822	0.563264	0.528905
130	C	0.132607	0.565646	0.3338
131	C	0.163067	0.580784	0.235287
132	C	0.193089	0.5957	0.318885
133	C	0.218453	0.608306	0.182713
134	C	0.206821	0.60253	0
135	S	0.166579	0.582535	0.989765
136	S	0.096634	0.547775	0.218114
137	C	0.019757	0.509569	0.585168
138	N	0.029955	0.514638	0.767525
139	S	0.998425	0.498971	0.90771
140	N	0.969682	0.484686	0.747506
141	C	0.983172	0.491388	0.573014
142	S	0.913495	0.456771	0.157338
143	S	0.809597	0.405131	0.219541
144	H	0.808721	0.40471	0.704502
145	H	0.867461	0.433899	0.837831
146	H	0.855933	0.428147	0.537257
147	H	0.913502	0.456752	0.670591
148	H	0.977841	0.488734	0.089306
149	H	0.033982	0.516633	0.107963
150	H	0.087207	0.543075	0.728132
151	H	0.146884	0.572732	0.633217
152	H	0.197026	0.597652	0.471795
153	H	0.24356	0.62078	0.218807
