data_C138H66N6O6S18_2023-05-15_15:45:15
#******************************************
#
# CIF file created by Zeo++
# Zeo++ is an open source package to
# analyze microporous materials
#
#*******************************************

_cell_length_a		61.5603   
_cell_length_b		61.8587   
_cell_length_c		7   
_cell_angle_alpha		90   
_cell_angle_beta		90   
_cell_angle_gamma		119.789   

_symmetry_space_group_name_H-M		'P1'
_symmetry_Int_Tables_number		1
_symmetry_cell_setting		Monoclinic

loop_
_symmetry_equiv_pos_as_xyz
'+x,+y,+z'

loop_
_atom_site_label
_atom_site_type_symbol
_atom_site_fract_x
_atom_site_fract_y
_atom_site_fract_z
1	C	0.358515	0.671938	0.999995
2	O	0.380592	0.675814	0.999991
3	C	0.338541	0.646036	0.999998
4	C	0.342401	0.626944	0
5	N	0.367114	0.631409	0
6	C	0.31301	0.641439	3e-06
7	O	0.29506	0.619114	5e-06
8	C	0.306893	0.661358	6e-06
9	C	0.283397	0.656551	5e-06
10	N	0.263961	0.631151	0
11	C	0.327827	0.687053	4e-06
12	O	0.322967	0.704279	7e-06
13	C	0.35377	0.692805	0.999999
14	C	0.372225	0.716246	0.999998
15	N	0.368536	0.737054	0
16	H	0.327111	0.608359	1e-06
17	H	0.278453	0.670819	8e-06
18	H	0.390875	0.719593	0.999997
19	C	0.641485	0.328062	0.999995
20	O	0.619408	0.324186	0.999991
21	C	0.661459	0.353964	0.999998
22	C	0.657599	0.373056	0
23	N	0.632886	0.368591	0
24	C	0.68699	0.358561	3e-06
25	O	0.70494	0.380886	5e-06
26	C	0.693107	0.338642	6e-06
27	C	0.716603	0.343449	5e-06
28	N	0.736039	0.368849	0
29	C	0.672173	0.312947	4e-06
30	O	0.677033	0.295721	7e-06
31	C	0.64623	0.307195	0.999999
32	C	0.627775	0.283754	0.999998
33	N	0.631464	0.262946	0
34	H	0.672889	0.391641	1e-06
35	H	0.721547	0.329181	8e-06
36	H	0.609125	0.280407	0.999997
37	C	0.382183	0.616507	0
38	C	0.368854	0.621448	0.132435
39	C	0.371375	0.61341	0.318296
40	C	0.386454	0.602595	0.32061
41	C	0.392659	0.592565	0.485816
42	C	0.389237	0.596413	0.675491
43	C	0.396747	0.583461	0.804277
44	C	0.405894	0.569908	0.711568
45	C	0.414354	0.554235	0.799943
46	C	0.407198	0.54284	0.976669
47	C	0.418622	0.528287	0.021685
48	C	0.434331	0.528783	0.8787
49	C	0.449083	0.516026	0.872513
50	C	0.450006	0.503617	0.707576
51	C	0.463428	0.490736	0.704021
52	C	0.46427	0.478236	0.539653
53	C	0.4775	0.465295	0.538804
54	C	0.49024	0.464501	0.702259
55	C	0.503435	0.451377	0.704102
56	C	0.516154	0.45059	0.867888
57	C	0.529591	0.436477	0.872441
58	C	0.530487	0.421855	0.018118
59	C	0.545809	0.411283	0.97265
60	C	0.556302	0.417891	0.792529
61	C	0.572809	0.410425	0.704699
62	C	0.589575	0.405392	0.798008
63	C	0.602773	0.397967	0.670822
64	C	0.59584	0.397322	0.482051
65	C	0.605371	0.390148	0.319157
66	C	0.617676	0.376481	0.323599
67	C	0.624867	0.372577	0.138495
68	C	0.617817	0.383493	0
69	S	0.602958	0.398137	0.087537
70	S	0.573392	0.405972	0.463623
71	S	0.547626	0.437232	0.682958
72	C	0.515469	0.463275	0.031953
73	C	0.502425	0.476531	0.034702
74	C	0.501716	0.489163	0.198824
75	C	0.488464	0.502078	0.199776
76	C	0.475595	0.502736	0.036629
77	C	0.462004	0.515453	0.035831
78	C	0.476254	0.490233	0.869768
79	C	0.48968	0.477107	0.868794
80	S	0.435474	0.547527	0.694266
81	S	0.405278	0.573351	0.468959
82	S	0.397484	0.602671	0.094097
83	H	0.357829	0.630221	0.100049
84	H	0.362255	0.615399	0.444013
85	H	0.381656	0.608028	0.722129
86	H	0.395455	0.584226	0.958236
87	H	0.393973	0.544417	0.069618
88	H	0.41507	0.517588	0.152029
89	H	0.43988	0.503647	0.580116
90	H	0.454586	0.47845	0.41015
91	H	0.477733	0.455788	0.408723
92	H	0.503491	0.441428	0.575991
93	H	0.520413	0.418651	0.151588
94	H	0.548676	0.399125	0.067996
95	H	0.592499	0.40708	0.951139
96	H	0.616793	0.393411	0.717646
97	H	0.621285	0.369321	0.453787
98	H	0.634555	0.362313	0.110717
99	H	0.525376	0.462985	0.15983
100	H	0.51145	0.489013	0.32823
101	H	0.488263	0.511607	0.329806
102	H	0.461585	0.525135	0.164487
103	C	0.383415	0.766857	0
104	C	0.378517	0.748701	0.132435
105	C	0.386566	0.759208	0.318296
106	C	0.397346	0.784952	0.32061
107	C	0.407378	0.801102	0.485816
108	C	0.403533	0.793871	0.675491
109	C	0.416489	0.814226	0.804277
110	C	0.430041	0.836805	0.711568
111	C	0.44572	0.860813	0.799943
112	C	0.457177	0.865054	0.976669
113	C	0.471721	0.89089	0.021685
114	C	0.471157	0.905997	0.8787
115	C	0.483886	0.933349	0.872513
116	C	0.496325	0.946623	0.707576
117	C	0.509184	0.972777	0.704021
118	C	0.521715	0.986061	0.539653
119	C	0.534635	0.012086	0.538804
120	C	0.535377	0.025527	0.702259
121	C	0.548481	0.0517	0.704102
122	C	0.549216	0.065114	0.867888
123	C	0.563311	0.092512	0.872441
124	C	0.577968	0.107961	0.018118
125	C	0.588504	0.133703	0.97265
126	C	0.581834	0.137545	0.792529
127	C	0.58925	0.161371	0.704699
128	C	0.594226	0.183033	0.798008
129	C	0.601615	0.203533	0.670822
130	C	0.602291	0.19729	0.482051
131	C	0.609445	0.213899	0.319157
132	C	0.623097	0.239728	0.323599
133	C	0.626981	0.250756	0.138495
134	C	0.616065	0.232886	0
135	S	0.601444	0.203547	0.087537
136	S	0.593713	0.166384	0.463623
137	S	0.562477	0.109669	0.682958
138	C	0.5365	0.051803	0.031953
139	C	0.523263	0.025649	0.034702
140	C	0.510599	0.012367	0.198824
141	C	0.497705	0.986345	0.199776
142	C	0.4971	0.972911	0.036629
143	C	0.484406	0.946751	0.035831
144	C	0.509634	0.986016	0.869768
145	C	0.522739	0.012419	0.868794
146	S	0.452357	0.888467	0.694266
147	S	0.426591	0.832765	0.468959
148	S	0.397224	0.79583	0.094097
149	H	0.369767	0.729016	0.100049
150	H	0.38461	0.74817	0.444013
151	H	0.391919	0.774776	0.722129
152	H	0.415728	0.812181	0.958236
153	H	0.455652	0.85035	0.069618
154	H	0.482464	0.898016	0.152029
155	H	0.496338	0.936536	0.580116
156	H	0.521541	0.97623	0.41015
157	H	0.544166	0.021782	0.408723
158	H	0.558456	0.061662	0.575991
159	H	0.581224	0.101147	0.151588
160	H	0.600683	0.148657	0.067996
161	H	0.592521	0.184255	0.951139
162	H	0.606125	0.221993	0.717646
163	H	0.630261	0.250442	0.453787
164	H	0.637232	0.270597	0.110717
165	H	0.536749	0.06193	0.15983
166	H	0.510708	0.022183	0.32823
167	H	0.488151	0.976658	0.329806
168	H	0.474699	0.936693	0.164487
169	C	0.234014	0.61625	0
170	C	0.25224	0.629465	0.132435
171	C	0.24167	0.626996	0.318296
172	C	0.215811	0.612067	0.32061
173	C	0.199574	0.605947	0.485816
174	C	0.206841	0.60933	0.675491
175	C	0.186376	0.601927	0.804277
176	C	0.163677	0.592901	0.711568
177	C	0.139537	0.584565	0.799943
178	C	0.135237	0.59172	0.976669
179	C	0.109268	0.580436	0.021685
180	C	0.094123	0.564834	0.8787
181	C	0.066642	0.550239	0.872513
182	C	0.05328	0.549375	0.707576
183	C	0.026999	0.536101	0.704021
184	C	0.013626	0.535317	0.539653
185	C	0.987476	0.522233	0.538804
186	C	0.973995	0.509586	0.702259
187	C	0.947695	0.496537	0.704102
188	C	0.934241	0.48391	0.867888
189	C	0.906709	0.470626	0.872441
190	C	0.891156	0.469798	0.018118
191	C	0.865299	0.454627	0.97265
192	C	0.861475	0.444178	0.792529
193	C	0.837553	0.427818	0.704699
194	C	0.81581	0.411189	0.798008
195	C	0.795223	0.398113	0.670822
196	C	0.80148	0.405001	0.482051
197	C	0.784796	0.395567	0.319157
198	C	0.758839	0.383405	0.323599
199	C	0.747764	0.37628	0.138495
200	C	0.765729	0.383235	0
201	S	0.79521	0.397929	0.087537
202	S	0.832507	0.427257	0.463623
203	S	0.889509	0.452713	0.682958
204	C	0.947643	0.484536	0.031953
205	C	0.973924	0.497434	0.034702
206	C	0.987296	0.498084	0.198824
207	C	0.013443	0.51119	0.199776
208	C	0.026916	0.523967	0.036629
209	C	0.053202	0.53741	0.035831
210	C	0.013723	0.523365	0.869768
211	C	0.987192	0.510088	0.868794
212	S	0.11178	0.56362	0.694266
213	S	0.167743	0.593498	0.468959
214	S	0.204904	0.601114	0.094097
215	H	0.272015	0.640377	0.100049
216	H	0.252746	0.636044	0.444013
217	H	0.226037	0.616809	0.722129
218	H	0.188429	0.603207	0.958236
219	H	0.149987	0.604847	0.069618
220	H	0.102077	0.58401	0.152029
221	H	0.063394	0.559431	0.580116
222	H	0.023484	0.544933	0.41015
223	H	0.977712	0.522043	0.408723
224	H	0.937664	0.496523	0.575991
225	H	0.897974	0.479816	0.151588
226	H	0.850252	0.451831	0.067996
227	H	0.814592	0.408278	0.951139
228	H	0.776694	0.38421	0.717646
229	H	0.748065	0.379851	0.453787
230	H	0.727825	0.366703	0.110717
231	H	0.937487	0.474699	0.15983
232	H	0.977453	0.488418	0.32823
233	H	0.023198	0.511349	0.329806
234	H	0.063328	0.537785	0.164487
