data_C102H48N12O6S18_2023-05-15_05:20:13
#******************************************
#
# CIF file created by Zeo++
# Zeo++ is an open source package to
# analyze microporous materials
#
#*******************************************

_cell_length_a		58.325   
_cell_length_b		58.6234   
_cell_length_c		7   
_cell_angle_alpha		90   
_cell_angle_beta		90   
_cell_angle_gamma		119.778   

_symmetry_space_group_name_H-M		'P1'
_symmetry_Int_Tables_number		1
_symmetry_cell_setting		Monoclinic

loop_
_symmetry_equiv_pos_as_xyz
'+x,+y,+z'

loop_
_atom_site_label
_atom_site_type_symbol
_atom_site_fract_x
_atom_site_fract_y
_atom_site_fract_z
1	C	0.359911	0.672228	0.999995
2	O	0.383211	0.676317	0.999991
3	C	0.338835	0.6449	0.999998
4	C	0.342914	0.624757	0
5	N	0.368996	0.629467	0
6	C	0.311889	0.640049	3e-06
7	O	0.292948	0.616496	5e-06
8	C	0.305427	0.661066	6e-06
9	C	0.28063	0.655994	5e-06
10	N	0.260122	0.629196	0
11	C	0.327516	0.688176	4e-06
12	O	0.322382	0.70635	7e-06
13	C	0.354897	0.694244	0.999999
14	C	0.37437	0.718976	0.999998
15	N	0.370471	0.740929	0
16	H	0.326781	0.605148	1e-06
17	H	0.275408	0.671048	8e-06
18	H	0.394054	0.722507	0.999997
19	C	0.640089	0.327772	0.999995
20	O	0.616789	0.323683	0.999991
21	C	0.661165	0.3551	0.999998
22	C	0.657086	0.375243	0
23	N	0.631004	0.370533	0
24	C	0.688111	0.359951	3e-06
25	O	0.707052	0.383504	5e-06
26	C	0.694573	0.338934	6e-06
27	C	0.71937	0.344006	5e-06
28	N	0.739878	0.370804	0
29	C	0.672484	0.311824	4e-06
30	O	0.677618	0.29365	7e-06
31	C	0.645103	0.305756	0.999999
32	C	0.62563	0.281024	0.999998
33	N	0.629529	0.259071	0
34	H	0.673219	0.394852	1e-06
35	H	0.724592	0.328952	8e-06
36	H	0.605946	0.277493	0.999997
37	C	0.615095	0.386255	0
38	C	0.603054	0.398145	0.092317
39	C	0.592236	0.408829	0.959701
40	C	0.577049	0.423827	0.015874
41	C	0.566675	0.434073	0.887661
42	C	0.554043	0.446547	0.981108
43	C	0.555034	0.445567	0.17846
44	C	0.544368	0.4561	0.318099
45	C	0.545361	0.4551	0.515131
46	C	0.532738	0.467573	0.607819
47	C	0.522176	0.478029	0.481323
48	C	0.507889	0.492152	0.526181
49	C	0.497705	0.502248	0.391949
50	N	0.484592	0.515211	0.439382
51	C	0.481699	0.518042	0.628458
52	C	0.467539	0.532043	0.682137
53	C	0.461787	0.537747	0.861697
54	C	0.447599	0.551771	0.855531
55	C	0.442577	0.556715	0.671567
56	C	0.428647	0.570479	0.616833
57	C	0.417779	0.581202	0.738632
58	C	0.405339	0.593501	0.640218
59	C	0.406978	0.5919	0.445056
60	C	0.395281	0.60347	0.295185
61	C	0.382013	0.616572	0.346094
62	S	0.371727	0.626752	0.150651
63	C	0.384905	0.613745	0
64	C	0.39694	0.601848	0.092285
65	S	0.423371	0.575711	0.383175
66	S	0.455368	0.544051	0.509556
67	C	0.491895	0.507933	0.762539
68	N	0.505018	0.494961	0.715754
69	S	0.527947	0.472344	0.250802
70	S	0.57149	0.429316	0.245922
71	C	0.596676	0.404444	0.773052
72	S	0.613713	0.387619	0.758961
73	H	0.602037	0.39915	0.246298
74	H	0.567837	0.432924	0.733946
75	H	0.544686	0.455787	0.904314
76	H	0.554695	0.445862	0.592213
77	H	0.53143	0.468851	0.761614
78	H	0.499578	0.500421	0.239408
79	H	0.467353	0.532264	0.994206
80	H	0.441457	0.557859	0.982505
81	H	0.41856	0.580418	0.8929
82	H	0.395801	0.602918	0.711925
83	H	0.377674	0.620848	0.487326
84	H	0.40642	0.592489	0.01879
85	H	0.489955	0.509825	0.914868
86	H	0.590919	0.410129	0.642713
87	C	0.613283	0.227354	0
88	C	0.601412	0.203565	0.092317
89	C	0.590747	0.18219	0.959701
90	C	0.575773	0.152182	0.015874
91	C	0.565544	0.131684	0.887661
92	C	0.553091	0.106726	0.981108
93	C	0.554069	0.108686	0.17846
94	C	0.543553	0.087612	0.318099
95	C	0.544551	0.089593	0.515131
96	C	0.5321	0.064645	0.607819
97	C	0.521661	0.043751	0.481323
98	C	0.507561	0.015509	0.526181
99	C	0.497481	0.995348	0.391949
100	N	0.48454	0.969426	0.439382
101	C	0.481714	0.963736	0.628458
102	C	0.467736	0.935741	0.682137
103	C	0.46204	0.924352	0.861697
104	C	0.44804	0.896306	0.855531
105	C	0.443104	0.886399	0.671567
106	C	0.429363	0.858869	0.616833
107	C	0.418657	0.837405	0.738632
108	C	0.406379	0.812813	0.640218
109	C	0.407977	0.816033	0.445056
110	C	0.396427	0.792904	0.295185
111	C	0.383345	0.766689	0.346094
112	S	0.373182	0.746343	0.150651
113	C	0.386168	0.772374	0
114	C	0.398046	0.796165	0.092285
115	S	0.424139	0.848422	0.383175
116	S	0.455748	0.911705	0.509556
117	C	0.491806	0.983921	0.762539
118	N	0.504757	0.009862	0.715754
119	S	0.527336	0.05514	0.250802
120	S	0.570293	0.141199	0.245922
121	C	0.595124	0.190963	0.773052
122	S	0.611921	0.224625	0.758961
123	H	0.600409	0.201554	0.246298
124	H	0.566691	0.133981	0.733946
125	H	0.543866	0.08824	0.904314
126	H	0.553775	0.108056	0.592213
127	H	0.530824	0.062075	0.761614
128	H	0.499305	0.999026	0.239408
129	H	0.467514	0.935336	0.994206
130	H	0.441962	0.884148	0.982505
131	H	0.419441	0.838961	0.8929
132	H	0.396977	0.793969	0.711925
133	H	0.379077	0.758125	0.487326
134	H	0.407389	0.814892	0.01879
135	H	0.489917	0.980112	0.914868
136	H	0.589448	0.179588	0.642713
137	C	0.771212	0.385983	0
138	C	0.795123	0.397882	0.092317
139	C	0.816607	0.408574	0.959701
140	C	0.846768	0.423583	0.015874
141	C	0.867371	0.433836	0.887661
142	C	0.892456	0.446319	0.981108
143	C	0.890487	0.44534	0.17846
144	C	0.911668	0.45588	0.318099
145	C	0.909677	0.454899	0.515131
146	C	0.934752	0.467375	0.607819
147	C	0.955753	0.477813	0.481323
148	C	0.98414	0.491932	0.526181
149	C	0.004403	0.501996	0.391949
150	N	0.030458	0.514955	0.439382
151	C	0.036177	0.517815	0.628458
152	C	0.064316	0.531809	0.682137
153	C	0.075762	0.537493	0.861697
154	C	0.103952	0.551515	0.855531
155	C	0.113909	0.556478	0.671567
156	C	0.14158	0.570245	0.616833
157	C	0.163153	0.580985	0.738632
158	C	0.187871	0.593279	0.640218
159	C	0.184635	0.59166	0.445056
160	C	0.207882	0.603219	0.295185
161	C	0.234231	0.616332	0.346094
162	S	0.254681	0.626497	0.150651
163	C	0.228517	0.613473	0
164	C	0.204604	0.60158	0.092285
165	S	0.15208	0.575459	0.383175
166	S	0.088474	0.543837	0.509556
167	C	0.015889	0.507739	0.762539
168	N	0.989815	0.49477	0.715754
169	S	0.944307	0.472109	0.250802
170	S	0.857807	0.429077	0.245922
171	C	0.807789	0.404186	0.773052
172	S	0.773955	0.387349	0.758961
173	H	0.797144	0.398888	0.246298
174	H	0.865063	0.432687	0.733946
175	H	0.911037	0.455566	0.904314
176	H	0.89112	0.445675	0.592213
177	H	0.937336	0.468667	0.761614
178	H	0.000707	0.500145	0.239408
179	H	0.064723	0.531993	0.994206
180	H	0.116172	0.557585	0.982505
181	H	0.161589	0.580213	0.8929
182	H	0.206812	0.602706	0.711925
183	H	0.242839	0.62062	0.487326
184	H	0.185781	0.592211	0.01879
185	H	0.019717	0.509656	0.914868
186	H	0.819223	0.409875	0.642713
