data_C60H36N12O6_2023-05-27_14:36:22
#******************************************
#
# CIF file created by Zeo++
# Zeo++ is an open source package to
# analyze microporous materials
#
#*******************************************

_cell_length_a		35.7726   
_cell_length_b		36.0712   
_cell_length_c		7   
_cell_angle_alpha		90   
_cell_angle_beta		90   
_cell_angle_gamma		119.638   

_symmetry_space_group_name_H-M		'P1'
_symmetry_Int_Tables_number		1
_symmetry_cell_setting		Monoclinic

loop_
_symmetry_equiv_pos_as_xyz
'+x,+y,+z'

loop_
_atom_site_label
_atom_site_type_symbol
_atom_site_fract_x
_atom_site_fract_y
_atom_site_fract_z
1	C	0.37664	0.675692	0.999995
2	O	0.414612	0.682329	0.999991
3	C	0.342403	0.63134	0.999998
4	C	0.349145	0.598649	0
5	N	0.391649	0.606294	0
6	C	0.298491	0.623468	3e-06
7	O	0.267717	0.585241	5e-06
8	C	0.28786	0.657577	6e-06
9	C	0.247452	0.649346	5e-06
10	N	0.214138	0.605853	0
11	C	0.32375	0.701575	4e-06
12	O	0.315296	0.731071	7e-06
13	C	0.368365	0.711424	0.999999
14	C	0.400001	0.751562	0.999998
15	N	0.393544	0.787192	0
16	H	0.322931	0.566824	1e-06
17	H	0.238869	0.673778	8e-06
18	H	0.432078	0.757294	0.999997
19	C	0.62336	0.324308	0.999995
20	O	0.585388	0.317671	0.999991
21	C	0.657597	0.36866	0.999998
22	C	0.650855	0.401351	0
23	N	0.608351	0.393706	0
24	C	0.701509	0.376532	3e-06
25	O	0.732283	0.414759	5e-06
26	C	0.71214	0.342423	6e-06
27	C	0.752548	0.350654	5e-06
28	N	0.785862	0.394147	0
29	C	0.67625	0.298425	4e-06
30	O	0.684704	0.268929	7e-06
31	C	0.631635	0.288576	0.999999
32	C	0.599999	0.248438	0.999998
33	N	0.606456	0.212808	0
34	H	0.677069	0.433176	1e-06
35	H	0.761131	0.326222	8e-06
36	H	0.567922	0.242706	0.999997
37	C	0.58234	0.419223	0
38	C	0.593572	0.435521	0.824038
39	C	0.573164	0.462303	0.780522
40	C	0.54864	0.458198	0.961981
41	C	0.523355	0.479638	0.983691
42	C	0.500171	0.476986	0.14765
43	N	0.476643	0.49698	0.167574
44	C	0.476663	0.520381	0.01636
45	C	0.45138	0.541823	0.03807
46	C	0.445316	0.566905	0.914281
47	C	0.41766	0.580777	0
48	C	0.406477	0.564528	0.176065
49	C	0.426902	0.537763	0.219622
50	C	0.499848	0.523034	0.852402
51	N	0.523376	0.50304	0.832479
52	C	0.554666	0.433076	0.085685
53	H	0.614063	0.430529	0.726681
54	H	0.551708	0.449472	0.657076
55	H	0.597845	0.495392	0.753098
56	H	0.499523	0.458512	0.271035
57	H	0.458397	0.576039	0.772181
58	H	0.38601	0.569545	0.273468
59	H	0.44839	0.550631	0.34295
60	H	0.402231	0.504681	0.247255
61	H	0.500497	0.541509	0.72902
62	H	0.541544	0.4239	0.227698
63	C	0.580111	0.161334	0
64	C	0.563655	0.156253	0.824038
65	C	0.536894	0.109499	0.780522
66	C	0.541197	0.089342	0.961981
67	C	0.51984	0.043073	0.983691
68	C	0.522673	0.022796	0.14765
69	N	0.502755	0.979698	0.167574
70	C	0.479244	0.956487	0.01636
71	C	0.457885	0.910218	0.03807
72	C	0.432728	0.879325	0.914281
73	C	0.418992	0.838226	0
74	C	0.435398	0.843306	0.176065
75	C	0.462141	0.89006	0.219622
76	C	0.476411	0.976763	0.852402
77	N	0.496328	0.019861	0.832479
78	C	0.566393	0.120236	0.085685
79	H	0.568521	0.181457	0.726681
80	H	0.549942	0.101035	0.657076
81	H	0.50347	0.101039	0.753098
82	H	0.541239	0.040496	0.271035
83	H	0.423457	0.883183	0.772181
84	H	0.430507	0.818102	0.273468
85	H	0.449057	0.898519	0.34295
86	H	0.495559	0.898524	0.247255
87	H	0.457844	0.959063	0.72902
88	H	0.575708	0.116379	0.227698
89	C	0.836881	0.418782	0
90	C	0.842105	0.407565	0.824038
91	C	0.889273	0.427536	0.780522
92	C	0.909494	0.451799	0.961981
93	C	0.956136	0.476628	0.983691
94	C	0.976488	0.499557	0.14765
95	N	0.019933	0.522661	0.167574
96	C	0.043425	0.522471	0.01636
97	C	0.090067	0.547298	0.03807
98	C	0.121288	0.553109	0.914281
99	C	0.16268	0.580336	0
100	C	0.157457	0.591505	0.176065
101	C	0.110289	0.571516	0.219622
102	C	0.023073	0.499542	0.852402
103	N	0.979628	0.476438	0.832479
104	C	0.878272	0.446027	0.085685
105	H	0.816748	0.387353	0.726681
106	H	0.897682	0.448831	0.657076
107	H	0.898016	0.402907	0.753098
108	H	0.95857	0.500331	0.271035
109	H	0.117478	0.540117	0.772181
110	H	0.182815	0.611692	0.273468
111	H	0.101885	0.55019	0.34295
112	H	0.101542	0.596135	0.247255
113	H	0.040991	0.498767	0.72902
114	H	0.88208	0.45906	0.227698
