data_C144H72N6O6S24_2023-05-14_09:32:37
#******************************************
#
# CIF file created by Zeo++
# Zeo++ is an open source package to
# analyze microporous materials
#
#*******************************************

_cell_length_a		76.1037   
_cell_length_b		76.4021   
_cell_length_c		7   
_cell_angle_alpha		90   
_cell_angle_beta		90   
_cell_angle_gamma		119.829   

_symmetry_space_group_name_H-M		'P1'
_symmetry_Int_Tables_number		1
_symmetry_cell_setting		Monoclinic

loop_
_symmetry_equiv_pos_as_xyz
'+x,+y,+z'

loop_
_atom_site_label
_atom_site_type_symbol
_atom_site_fract_x
_atom_site_fract_y
_atom_site_fract_z
1	C	0.353707	0.670936	0.999995
2	O	0.371567	0.674075	0.999991
3	C	0.337532	0.649956	0.999998
4	C	0.340642	0.634493	0
5	N	0.360635	0.638109	0
6	C	0.316877	0.646233	3e-06
7	O	0.302343	0.62815	5e-06
8	C	0.311942	0.662367	6e-06
9	C	0.292934	0.658474	5e-06
10	N	0.277195	0.6379	0
11	C	0.328893	0.683179	4e-06
12	O	0.324972	0.697132	7e-06
13	C	0.349882	0.687838	0.999999
14	C	0.364825	0.706824	0.999998
15	N	0.361855	0.723678	0
16	H	0.328262	0.619439	1e-06
17	H	0.288944	0.67003	8e-06
18	H	0.379914	0.709535	0.999997
19	C	0.646293	0.329064	0.999995
20	O	0.628433	0.325925	0.999991
21	C	0.662468	0.350044	0.999998
22	C	0.659358	0.365507	0
23	N	0.639365	0.361891	0
24	C	0.683123	0.353767	3e-06
25	O	0.697657	0.37185	5e-06
26	C	0.688058	0.337633	6e-06
27	C	0.707066	0.341526	5e-06
28	N	0.722805	0.3621	0
29	C	0.671107	0.316821	4e-06
30	O	0.675028	0.302868	7e-06
31	C	0.650118	0.312162	0.999999
32	C	0.635175	0.293176	0.999998
33	N	0.638145	0.276322	0
34	H	0.671738	0.380561	1e-06
35	H	0.711056	0.32997	8e-06
36	H	0.620086	0.290465	0.999997
37	C	0.627185	0.373961	0
38	C	0.631234	0.38686	0.150498
39	C	0.616824	0.393642	0.160041
40	C	0.602348	0.385703	0.016475
41	C	0.585617	0.389306	0.981746
42	C	0.571299	0.3815	0.837635
43	C	0.557067	0.388484	0.84599
44	C	0.560581	0.401444	0.997128
45	C	0.54915	0.411372	0.043196
46	C	0.538627	0.416582	0.916119
47	C	0.528777	0.426095	0.006863
48	C	0.53176	0.427919	0.202442
49	C	0.524087	0.436733	0.339312
50	C	0.524712	0.436199	0.536699
51	C	0.515705	0.446579	0.626588
52	C	0.508223	0.454825	0.49664
53	C	0.498259	0.46674	0.533653
54	C	0.480609	0.462939	0.436732
55	C	0.471264	0.474353	0.475046
56	C	0.479317	0.489834	0.611606
57	C	0.470089	0.50145	0.651497
58	C	0.478183	0.516982	0.787771
59	C	0.468537	0.529083	0.830843
60	C	0.465071	0.534965	0.006854
61	C	0.455658	0.547046	0.992045
62	C	0.452084	0.550228	0.805013
63	C	0.44305	0.562012	0.74165
64	C	0.442778	0.57753	0.840525
65	C	0.432566	0.586072	0.739383
66	C	0.425042	0.576922	0.564687
67	C	0.413998	0.581669	0.424535
68	C	0.404235	0.570996	0.261819
69	C	0.394892	0.580161	0.156108
70	C	0.397628	0.597781	0.238726
71	C	0.390335	0.610989	0.171845
72	C	0.395352	0.630008	0.239071
73	C	0.3852	0.638742	0.139552
74	C	0.372815	0.626039	0
75	S	0.373195	0.604144	0.986735
76	S	0.411574	0.60277	0.444665
77	S	0.430593	0.557962	0.528011
78	S	0.460415	0.538492	0.650335
79	C	0.495749	0.520676	0.885593
80	C	0.505095	0.509256	0.847582
81	C	0.497053	0.493787	0.710945
82	C	0.506278	0.482174	0.670932
83	S	0.512452	0.449994	0.267375
84	S	0.546648	0.417964	0.271369
85	S	0.581217	0.404924	0.126025
86	S	0.606668	0.369919	0.872129
87	H	0.643718	0.391324	0.249072
88	H	0.617263	0.403972	0.26852
89	H	0.570867	0.371207	0.728825
90	H	0.544759	0.383999	0.745153
91	H	0.538061	0.413917	0.763652
92	H	0.51988	0.431282	0.92979
93	H	0.531294	0.428676	0.61571
94	H	0.514677	0.447769	0.77997
95	H	0.473803	0.450941	0.330972
96	H	0.457585	0.471017	0.396895
97	H	0.456299	0.498185	0.575635
98	H	0.468997	0.530723	0.141105
99	H	0.451623	0.552981	0.114435
100	H	0.44974	0.582808	0.979243
101	H	0.430925	0.598431	0.794582
102	H	0.403626	0.557095	0.218258
103	H	0.386601	0.573884	0.024653
104	H	0.405913	0.637557	0.35485
105	H	0.38704	0.653457	0.170177
106	H	0.502499	0.532665	0.991418
107	H	0.518781	0.512615	0.925603
108	H	0.520048	0.485366	0.746783
109	C	0.625669	0.251973	0
110	C	0.612729	0.243145	0.150498
111	C	0.605981	0.222057	0.160041
112	C	0.613987	0.215574	0.016475
113	C	0.610433	0.195346	0.981746
114	C	0.618306	0.188889	0.837635
115	C	0.611356	0.167776	0.84599
116	C	0.598354	0.158354	0.997128
117	C	0.588444	0.137094	0.043196
118	C	0.583258	0.121438	0.916119
119	C	0.573759	0.102163	0.006863
120	C	0.571921	0.103311	0.202442
121	C	0.563113	0.086897	0.339312
122	C	0.563647	0.088052	0.536699
123	C	0.553274	0.06875	0.626588
124	C	0.545036	0.053093	0.49664
125	C	0.533129	0.03131	0.533653
126	C	0.536999	0.017548	0.436732
127	C	0.525592	0.99688	0.475046
128	C	0.510049	0.989461	0.611606
129	C	0.498439	0.968707	0.651497
130	C	0.482845	0.961277	0.787771
131	C	0.470751	0.939626	0.830843
132	C	0.464868	0.930317	0.006854
133	C	0.452793	0.908919	0.992045
134	C	0.449616	0.902193	0.805013
135	C	0.437837	0.881466	0.74165
136	C	0.422286	0.865732	0.840525
137	C	0.413759	0.847063	0.739383
138	C	0.422956	0.8487	0.564687
139	C	0.418236	0.832988	0.424535
140	C	0.428966	0.833915	0.261819
141	C	0.419813	0.815492	0.156108
142	C	0.402145	0.800653	0.238726
143	C	0.388932	0.780238	0.171845
144	C	0.369855	0.766273	0.239071
145	C	0.361137	0.747474	0.139552
146	C	0.37391	0.747818	0
147	S	0.395852	0.770016	0.986735
148	S	0.397097	0.809548	0.444665
149	S	0.441938	0.873115	0.528011
150	S	0.461349	0.922173	0.650335
151	C	0.479083	0.975064	0.885593
152	C	0.490495	0.995737	0.847582
153	C	0.506026	0.003157	0.710945
154	C	0.517634	0.023903	0.670932
155	S	0.549864	0.062113	0.267375
156	S	0.581847	0.128037	0.271369
157	S	0.594796	0.175406	0.126025
158	S	0.629791	0.235599	0.872129
159	H	0.608212	0.25111	0.249072
160	H	0.595627	0.212199	0.26852
161	H	0.628623	0.198716	0.728825
162	H	0.615892	0.160007	0.745153
163	H	0.585931	0.123531	0.763652
164	H	0.568591	0.088146	0.92979
165	H	0.571163	0.102093	0.61571
166	H	0.552085	0.066542	0.77997
167	H	0.549047	0.022737	0.330972
168	H	0.528982	0.986602	0.396895
169	H	0.501759	0.958249	0.575635
170	H	0.469105	0.938449	0.141105
171	H	0.446858	0.898991	0.114435
172	H	0.416972	0.867394	0.979243
173	H	0.40138	0.833115	0.794582
174	H	0.4429	0.847164	0.218258
175	H	0.426132	0.813502	0.024653
176	H	0.362253	0.769252	0.35485
177	H	0.346383	0.734639	0.170177
178	H	0.467044	0.969828	0.991418
179	H	0.487082	0.005999	0.925603
180	H	0.514387	0.034415	0.746783
181	C	0.746831	0.373753	0
182	C	0.755723	0.369682	0.150498
183	C	0.776881	0.383988	0.160041
184	C	0.78335	0.39841	0.016475
185	C	0.803635	0.415034	0.981746
186	C	0.81008	0.429299	0.837635
187	C	0.831263	0.443427	0.84599
188	C	0.84075	0.439888	0.997128
189	C	0.862091	0.451221	0.043196
190	C	0.8778	0.461667	0.916119
191	C	0.89715	0.47143	0.006863
192	C	0.896005	0.468457	0.202442
193	C	0.912486	0.476057	0.339312
194	C	0.911327	0.475437	0.536699
195	C	0.930706	0.484358	0.626588
196	C	0.946426	0.49177	0.49664
197	C	0.968298	0.501637	0.533653
198	C	0.982077	0.519201	0.436732
199	C	0.00283	0.528454	0.475046
200	C	0.010319	0.520393	0.611606
201	C	0.031158	0.52953	0.651497
202	C	0.038658	0.521428	0.787771
203	C	0.060398	0.530978	0.830843
204	C	0.069747	0.534405	0.006854
205	C	0.091235	0.543723	0.992045
206	C	0.097986	0.547266	0.805013
207	C	0.118799	0.556209	0.74165
208	C	0.134621	0.556426	0.840525
209	C	0.153361	0.566552	0.739383
210	C	0.151688	0.574065	0.564687
211	C	0.167451	0.585031	0.424535
212	C	0.166485	0.594776	0.261819
213	C	0.184981	0.604034	0.156108
214	C	0.199912	0.601253	0.238726
215	C	0.220418	0.60846	0.171845
216	C	0.234479	0.603406	0.239071
217	C	0.253349	0.613471	0.139552
218	C	0.25296	0.62583	0
219	S	0.230639	0.625527	0.986735
220	S	0.191015	0.587369	0.444665
221	S	0.127155	0.56861	0.528011
222	S	0.077922	0.539022	0.650335
223	C	0.024854	0.503947	0.885593
224	C	0.004095	0.494693	0.847582
225	C	0.996606	0.502743	0.710945
226	C	0.975774	0.49361	0.670932
227	S	0.93737	0.487581	0.267375
228	S	0.871191	0.453687	0.271369
229	S	0.823673	0.419357	0.126025
230	S	0.763227	0.394169	0.872129
231	H	0.747756	0.357253	0.249072
232	H	0.786796	0.383516	0.26852
233	H	0.800196	0.429764	0.728825
234	H	0.839034	0.455681	0.745153
235	H	0.875693	0.462239	0.763652
236	H	0.911215	0.480259	0.92979
237	H	0.897228	0.468918	0.61571
238	H	0.932924	0.485376	0.77997
239	H	0.976835	0.526009	0.330972
240	H	0.013119	0.542068	0.396895
241	H	0.041628	0.543254	0.575635
242	H	0.061583	0.530515	0.141105
243	H	0.101204	0.547715	0.114435
244	H	0.132973	0.549485	0.979243
245	H	0.167381	0.568141	0.794582
246	H	0.153159	0.595429	0.218258
247	H	0.186953	0.612301	0.024653
248	H	0.23152	0.592879	0.35485
249	H	0.266263	0.611591	0.170177
250	H	0.030142	0.497194	0.991418
251	H	0.993823	0.481073	0.925603
252	H	0.96525	0.479906	0.746783
