data_C96H48N6O6S12_2023-05-13_09:43:51
#******************************************
#
# CIF file created by Zeo++
# Zeo++ is an open source package to
# analyze microporous materials
#
#*******************************************

_cell_length_a		50.3918   
_cell_length_b		50.6902   
_cell_length_c		7   
_cell_angle_alpha		90   
_cell_angle_beta		90   
_cell_angle_gamma		119.743   

_symmetry_space_group_name_H-M		'P1'
_symmetry_Int_Tables_number		1
_symmetry_cell_setting		Monoclinic

loop_
_symmetry_equiv_pos_as_xyz
'+x,+y,+z'

loop_
_atom_site_label
_atom_site_type_symbol
_atom_site_fract_x
_atom_site_fract_y
_atom_site_fract_z
1	C	0.36409	0.673096	0.999995
2	O	0.391056	0.677824	0.999991
3	C	0.339719	0.641502	0.999998
4	C	0.344456	0.618215	0
5	N	0.374641	0.623661	0
6	C	0.308534	0.635895	3e-06
7	O	0.286631	0.608664	5e-06
8	C	0.301039	0.660192	6e-06
9	C	0.272341	0.654329	5e-06
10	N	0.248627	0.623346	0
11	C	0.326583	0.691533	4e-06
12	O	0.320626	0.712545	7e-06
13	C	0.358269	0.698549	0.999999
14	C	0.380788	0.727141	0.999998
15	N	0.376258	0.752522	0
16	H	0.325799	0.595545	1e-06
17	H	0.266285	0.671732	8e-06
18	H	0.403568	0.731224	0.999997
19	C	0.63591	0.326904	0.999995
20	O	0.608944	0.322176	0.999991
21	C	0.660281	0.358498	0.999998
22	C	0.655544	0.381785	0
23	N	0.625359	0.376339	0
24	C	0.691466	0.364105	3e-06
25	O	0.713369	0.391336	5e-06
26	C	0.698961	0.339808	6e-06
27	C	0.727659	0.345671	5e-06
28	N	0.751373	0.376654	0
29	C	0.673417	0.308467	4e-06
30	O	0.679374	0.287455	7e-06
31	C	0.641731	0.301451	0.999999
32	C	0.619212	0.272859	0.999998
33	N	0.623742	0.247478	0
34	H	0.674201	0.404455	1e-06
35	H	0.733715	0.328268	8e-06
36	H	0.596432	0.268776	0.999997
37	C	0.606933	0.394516	0
38	C	0.615643	0.385925	0.163066
39	S	0.604256	0.397161	0.362049
40	C	0.587491	0.413698	0.229487
41	C	0.572459	0.428529	0.320025
42	C	0.56907	0.431883	0.512792
43	C	0.552914	0.447821	0.550429
44	C	0.543967	0.456635	0.386527
45	C	0.52692	0.473449	0.367966
46	C	0.519411	0.480857	0.190451
47	C	0.503312	0.496736	0.177162
48	C	0.494114	0.505807	0.341448
49	C	0.477901	0.521799	0.330373
50	C	0.468532	0.531039	0.494381
51	C	0.451436	0.547901	0.484976
52	C	0.440846	0.55834	0.633042
53	C	0.425223	0.573751	0.569631
54	C	0.423887	0.575077	0.373021
55	C	0.409933	0.588844	0.258956
56	C	0.408618	0.590144	0.06146
57	C	0.393067	0.605484	0
58	C	0.382718	0.615691	0.147599
59	S	0.391918	0.606612	0.363292
60	S	0.441813	0.557403	0.270147
61	C	0.476044	0.523629	0.671923
62	C	0.492139	0.507754	0.685434
63	C	0.501334	0.498684	0.521128
64	C	0.517548	0.482692	0.531993
65	S	0.555765	0.444985	0.189064
66	C	0.59087	0.410363	0.035803
67	H	0.628049	0.373687	0.176179
68	H	0.577692	0.423386	0.624703
69	H	0.548281	0.4524	0.693941
70	H	0.525847	0.474511	0.057246
71	H	0.498047	0.50193	0.036083
72	H	0.472717	0.526914	0.188945
73	H	0.443941	0.55528	0.782809
74	H	0.415501	0.583335	0.666668
75	H	0.418394	0.580503	0.965326
76	H	0.370279	0.62796	0.14055
77	H	0.469557	0.530028	0.804646
78	H	0.4974	0.502564	0.826498
79	H	0.522785	0.477525	0.673024
80	H	0.582187	0.418927	0.924692
81	C	0.604965	0.210811	0
82	C	0.61354	0.227995	0.163066
83	S	0.602325	0.205525	0.362049
84	C	0.585819	0.172451	0.229487
85	C	0.571016	0.142791	0.320025
86	C	0.567669	0.136095	0.512792
87	C	0.551762	0.10422	0.550429
88	C	0.542964	0.08658	0.386527
89	C	0.526182	0.052949	0.367966
90	C	0.518788	0.038134	0.190451
91	C	0.50294	0.006374	0.177162
92	C	0.493886	0.98823	0.341448
93	C	0.477924	0.956244	0.330373
94	C	0.468702	0.937762	0.494381
95	C	0.451872	0.904036	0.484976
96	C	0.441454	0.883151	0.633042
97	C	0.426072	0.852328	0.569631
98	C	0.424748	0.849684	0.373021
99	C	0.411008	0.822153	0.258956
100	C	0.40971	0.819555	0.06146
101	C	0.3944	0.788875	0
102	C	0.384212	0.768459	0.147599
103	S	0.393274	0.786613	0.363292
104	S	0.442388	0.885041	0.270147
105	C	0.476098	0.952582	0.671923
106	C	0.491943	0.984334	0.685434
107	C	0.500995	0.002475	0.521128
108	C	0.516957	0.034461	0.531993
109	S	0.554592	0.109867	0.189064
110	C	0.589148	0.179119	0.035803
111	H	0.625754	0.25247	0.176179
112	H	0.57615	0.153096	0.624703
113	H	0.547191	0.095071	0.693941
114	H	0.525122	0.050829	0.057246
115	H	0.497756	0.995987	0.036083
116	H	0.47282	0.946016	0.188945
117	H	0.444508	0.889263	0.782809
118	H	0.416506	0.833154	0.666668
119	H	0.419333	0.83884	0.965326
120	H	0.371966	0.74392	0.14055
121	H	0.469711	0.939784	0.804646
122	H	0.497123	0.994714	0.826498
123	H	0.522114	0.044794	0.673024
124	H	0.580601	0.16199	0.924692
125	C	0.787628	0.394202	0
126	C	0.770343	0.38561	0.163066
127	S	0.792945	0.396843	0.362049
128	C	0.826215	0.41338	0.229487
129	C	0.85605	0.428209	0.320025
130	C	0.862786	0.431551	0.512792
131	C	0.894849	0.447488	0.550429
132	C	0.912594	0.456314	0.386527
133	C	0.946423	0.47313	0.367966
134	C	0.961326	0.480538	0.190451
135	C	0.993274	0.496419	0.177162
136	C	0.011525	0.505492	0.341448
137	C	0.0437	0.521486	0.330373
138	C	0.062291	0.530727	0.494381
139	C	0.096217	0.547591	0.484976
140	C	0.117225	0.558038	0.633042
141	C	0.148231	0.57345	0.569631
142	C	0.150891	0.574768	0.373021
143	C	0.178584	0.588533	0.258956
144	C	0.181197	0.58983	0.06146
145	C	0.212058	0.60517	0
146	C	0.232596	0.615379	0.147599
147	S	0.214334	0.606304	0.363292
148	S	0.115324	0.557085	0.270147
149	C	0.047384	0.523317	0.671923
150	C	0.015444	0.507441	0.685434
151	C	0.997196	0.498369	0.521128
152	C	0.965021	0.482376	0.531993
153	S	0.889169	0.444676	0.189064
154	C	0.819507	0.410047	0.035803
155	H	0.745722	0.373372	0.176179
156	H	0.845684	0.423047	0.624703
157	H	0.904053	0.452059	0.693941
158	H	0.948556	0.474189	0.057246
159	H	0.003722	0.501612	0.036083
160	H	0.053989	0.526599	0.188945
161	H	0.111077	0.554985	0.782809
162	H	0.167518	0.58304	0.666668
163	H	0.161799	0.580187	0.965326
164	H	0.25728	0.627649	0.14055
165	H	0.060257	0.529716	0.804646
166	H	0.005002	0.50225	0.826498
167	H	0.954627	0.47721	0.673024
168	H	0.836737	0.418612	0.924692
