data_C60H36N12O6_2023-05-11_21:21:39
#******************************************
#
# CIF file created by Zeo++
# Zeo++ is an open source package to
# analyze microporous materials
#
#*******************************************

_cell_length_a		35.6184   
_cell_length_b		35.917   
_cell_length_c		7   
_cell_angle_alpha		90   
_cell_angle_beta		90   
_cell_angle_gamma		119.637   

_symmetry_space_group_name_H-M		'P1'
_symmetry_Int_Tables_number		1
_symmetry_cell_setting		Monoclinic

loop_
_symmetry_equiv_pos_as_xyz
'+x,+y,+z'

loop_
_atom_site_label
_atom_site_type_symbol
_atom_site_fract_x
_atom_site_fract_y
_atom_site_fract_z
1	C	0.376827	0.675731	0.999995
2	O	0.414963	0.682396	0.999991
3	C	0.342443	0.631189	0.999998
4	C	0.349216	0.598358	0
5	N	0.391904	0.606036	0
6	C	0.298341	0.623283	3e-06
7	O	0.267436	0.584893	5e-06
8	C	0.287663	0.657538	6e-06
9	C	0.247081	0.649272	5e-06
10	N	0.213624	0.605593	0
11	C	0.323707	0.701724	4e-06
12	O	0.315216	0.731347	7e-06
13	C	0.368515	0.711615	0.999999
14	C	0.400287	0.751925	0.999998
15	N	0.393801	0.787708	0
16	H	0.322889	0.566397	1e-06
17	H	0.23846	0.673808	8e-06
18	H	0.432503	0.757681	0.999997
19	C	0.623173	0.324269	0.999995
20	O	0.585037	0.317604	0.999991
21	C	0.657557	0.368811	0.999998
22	C	0.650784	0.401642	0
23	N	0.608096	0.393964	0
24	C	0.701659	0.376717	3e-06
25	O	0.732564	0.415107	5e-06
26	C	0.712337	0.342462	6e-06
27	C	0.752919	0.350728	5e-06
28	N	0.786376	0.394407	0
29	C	0.676293	0.298276	4e-06
30	O	0.684784	0.268653	7e-06
31	C	0.631485	0.288385	0.999999
32	C	0.599713	0.248075	0.999998
33	N	0.606199	0.212292	0
34	H	0.677111	0.433603	1e-06
35	H	0.76154	0.326192	8e-06
36	H	0.567497	0.242319	0.999997
37	C	0.581972	0.41959	0
38	C	0.581883	0.419694	0.191161
39	C	0.558723	0.442413	0.261785
40	C	0.5459	0.454976	0.077711
41	C	0.522062	0.478357	0.078151
42	C	0.509445	0.490731	0.912865
43	N	0.487255	0.512497	0.913669
44	C	0.477568	0.522001	0.087603
45	C	0.453725	0.545391	0.090119
46	C	0.440411	0.558449	0.937195
47	C	0.418028	0.58041	0
48	C	0.417299	0.58113	0.191148
49	C	0.440128	0.558734	0.269259
50	C	0.490199	0.509613	0.252826
51	N	0.512391	0.487845	0.25211
52	C	0.559858	0.441275	0.929292
53	H	0.596082	0.405776	0.282523
54	H	0.580476	0.470465	0.34694
55	H	0.530501	0.420719	0.346987
56	H	0.516695	0.483618	0.77159
57	H	0.445457	0.553496	0.78928
58	H	0.402684	0.59547	0.277282
59	H	0.418017	0.531055	0.355469
60	H	0.467981	0.580785	0.355456
61	H	0.482961	0.516714	0.394175
62	H	0.555881	0.445164	0.779093
63	C	0.579742	0.160598	0
64	C	0.579638	0.160407	0.191161
65	C	0.55698	0.114969	0.261785
66	C	0.544452	0.089829	0.077711
67	C	0.521134	0.043064	0.078151
68	C	0.508794	0.018313	0.912865
69	N	0.487087	0.97478	0.913669
70	C	0.477608	0.955774	0.087603
71	C	0.454281	0.908995	0.090119
72	C	0.441259	0.882877	0.937195
73	C	0.419358	0.83896	0
74	C	0.418639	0.837525	0.191148
75	C	0.440974	0.882314	0.269259
76	C	0.489963	0.980552	0.252826
77	N	0.511671	0.024088	0.25211
78	C	0.558116	0.117221	0.929292
79	H	0.593518	0.188253	0.282523
80	H	0.528638	0.108616	0.34694
81	H	0.578983	0.108619	0.346987
82	H	0.515888	0.032538	0.77159
83	H	0.446198	0.892779	0.78928
84	H	0.404337	0.808848	0.277282
85	H	0.468946	0.887944	0.355469
86	H	0.418617	0.887945	0.355456
87	H	0.482881	0.966351	0.394175
88	H	0.554238	0.109431	0.779093
89	C	0.837615	0.419148	0
90	C	0.837808	0.419235	0.191161
91	C	0.883625	0.441953	0.261785
92	C	0.908977	0.454532	0.077711
93	C	0.956132	0.477915	0.078151
94	C	0.98109	0.490292	0.912865
95	N	0.024987	0.512059	0.913669
96	C	0.044153	0.521561	0.087603
97	C	0.091323	0.54495	0.090119
98	C	0.117659	0.55801	0.937195
99	C	0.161943	0.579967	0
100	C	0.163391	0.580682	0.191148
101	C	0.118226	0.558287	0.269259
102	C	0.019167	0.509171	0.252826
103	N	0.975267	0.487402	0.25211
104	C	0.881355	0.44084	0.929292
105	H	0.809729	0.405307	0.282523
106	H	0.890216	0.420255	0.34694
107	H	0.889845	0.469998	0.346987
108	H	0.966746	0.48318	0.77159
109	H	0.107674	0.553061	0.78928
110	H	0.192307	0.595018	0.277282
111	H	0.112366	0.580337	0.355469
112	H	0.112732	0.530606	0.355456
113	H	0.033487	0.516271	0.394175
114	H	0.88921	0.444741	0.779093
