data_C90H36N12O6S18_2023-05-11_09:54:43
#******************************************
#
# CIF file created by Zeo++
# Zeo++ is an open source package to
# analyze microporous materials
#
#*******************************************

_cell_length_a		47.706   
_cell_length_b		48.0045   
_cell_length_c		7   
_cell_angle_alpha		90   
_cell_angle_beta		90   
_cell_angle_gamma		119.728   

_symmetry_space_group_name_H-M		'P1'
_symmetry_Int_Tables_number		1
_symmetry_cell_setting		Monoclinic

loop_
_symmetry_equiv_pos_as_xyz
'+x,+y,+z'

loop_
_atom_site_label
_atom_site_type_symbol
_atom_site_fract_x
_atom_site_fract_y
_atom_site_fract_z
1	C	0.36582	0.673455	0.999995
2	O	0.394302	0.678446	0.999991
3	C	0.340086	0.640098	0.999998
4	C	0.345097	0.615511	0
5	N	0.37698	0.621261	0
6	C	0.307148	0.634178	3e-06
7	O	0.28402	0.605428	5e-06
8	C	0.299222	0.659831	6e-06
9	C	0.268911	0.65364	5e-06
10	N	0.243871	0.620929	0
11	C	0.326195	0.692921	4e-06
12	O	0.319896	0.715105	7e-06
13	C	0.359664	0.700328	0.999999
14	C	0.383441	0.730516	0.999998
15	N	0.378648	0.757312	0
16	H	0.325397	0.591576	1e-06
17	H	0.262509	0.672015	8e-06
18	H	0.407502	0.734826	0.999997
19	C	0.63418	0.326545	0.999995
20	O	0.605698	0.321554	0.999991
21	C	0.659914	0.359902	0.999998
22	C	0.654903	0.384489	0
23	N	0.62302	0.378739	0
24	C	0.692852	0.365822	3e-06
25	O	0.71598	0.394572	5e-06
26	C	0.700778	0.340169	6e-06
27	C	0.731089	0.34636	5e-06
28	N	0.756129	0.379071	0
29	C	0.673805	0.307079	4e-06
30	O	0.680104	0.284895	7e-06
31	C	0.640336	0.299672	0.999999
32	C	0.616559	0.269484	0.999998
33	N	0.621352	0.242688	0
34	H	0.674603	0.408424	1e-06
35	H	0.737491	0.327985	8e-06
36	H	0.592498	0.265174	0.999997
37	C	0.396449	0.60207	0
38	C	0.417394	0.590392	0.017247
39	C	0.443689	0.609929	0.141732
40	C	0.472213	0.603607	0.193853
41	C	0.497422	0.622429	0.314845
42	C	0.519599	0.610778	0.334349
43	C	0.510697	0.58356	0.226669
44	C	0.526814	0.564654	0.208491
45	C	0.5226	0.542862	0.354923
46	N	0.504397	0.537079	0.520652
47	C	0.505846	0.51504	0.623814
48	S	0.52905	0.500152	0.534763
49	C	0.53807	0.524717	0.336588
50	C	0.557169	0.528429	0.176526
51	C	0.573227	0.509465	0.157657
52	C	0.605167	0.518542	0.189981
53	C	0.611791	0.493099	0.154257
54	C	0.584746	0.465489	0.094559
55	C	0.584352	0.433298	0.043729
56	C	0.556958	0.405945	0.98357
57	S	0.564218	0.374958	0.938817
58	C	0.603551	0.39793	0
59	C	0.611606	0.428513	0.053483
60	S	0.551747	0.470477	0.081799
61	C	0.56196	0.550748	0.032214
62	C	0.546395	0.568804	0.050222
63	S	0.556255	0.594142	0.855222
64	C	0.579534	0.579331	0.766344
65	N	0.580932	0.557235	0.869241
66	S	0.475413	0.5721	0.105861
67	C	0.441257	0.635492	0.212487
68	S	0.407595	0.635801	0.129032
69	H	0.414088	0.569023	0.945023
70	H	0.5002	0.643533	0.387815
71	H	0.540969	0.621829	0.423565
72	H	0.493157	0.506745	0.758237
73	H	0.623043	0.542358	0.236621
74	H	0.63541	0.495447	0.171461
75	H	0.532899	0.402284	0.962884
76	H	0.635679	0.446434	0.096927
77	H	0.592416	0.587802	0.632599
78	H	0.457337	0.654212	0.308903
79	C	0.3978	0.795694	0
80	C	0.409405	0.828067	0.017247
81	C	0.389656	0.834697	0.141732
82	C	0.395844	0.869254	0.193853
83	C	0.376818	0.875518	0.314845
84	C	0.388389	0.909085	0.334349
85	C	0.415751	0.927331	0.226669
86	C	0.434636	0.962108	0.208491
87	C	0.456528	0.979605	0.354923
88	N	0.46243	0.967315	0.520652
89	C	0.48454	0.990671	0.623814
90	S	0.499353	0.028474	0.534763
91	C	0.474652	0.012983	0.336588
92	C	0.470823	0.02822	0.176526
93	C	0.489766	0.062995	0.157657
94	C	0.480483	0.085622	0.189981
95	C	0.505979	0.117492	0.154257
96	C	0.533834	0.118147	0.094559
97	C	0.56614	0.149771	0.043729
98	C	0.593739	0.149826	0.98357
99	S	0.624796	0.187839	0.938817
100	C	0.601528	0.203975	0
101	C	0.570794	0.181542	0.053483
102	S	0.529008	0.080481	0.081799
103	C	0.448399	0.010771	0.032214
104	C	0.430365	0.977388	0.050222
105	S	0.404883	0.961959	0.855222
106	C	0.41962	0.999762	0.766344
107	N	0.441786	0.023123	0.869241
108	S	0.427445	0.90376	0.105861
109	C	0.364016	0.806863	0.212487
110	S	0.363889	0.773194	0.129032
111	H	0.430867	0.846042	0.945023
112	H	0.355625	0.857283	0.387815
113	H	0.377183	0.919274	0.423565
114	H	0.492932	0.986344	0.758237
115	H	0.456485	0.079653	0.236621
116	H	0.503494	0.138565	0.171461
117	H	0.597545	0.129622	0.962884
118	H	0.552678	0.187576	0.096927
119	H	0.411048	0.004103	0.632599
120	H	0.345142	0.804182	0.308903
121	C	0.20525	0.601738	0
122	C	0.1727	0.581044	0.017247
123	C	0.166154	0.554877	0.141732
124	C	0.131442	0.526642	0.193853
125	C	0.125259	0.501555	0.314845
126	C	0.091511	0.47964	0.334349
127	C	0.073051	0.488611	0.226669
128	C	0.038049	0.47274	0.208491
129	C	0.020371	0.477036	0.354923
130	N	0.032672	0.495108	0.520652
131	C	0.009113	0.493792	0.623814
132	S	0.971095	0.470877	0.534763
133	C	0.986777	0.461803	0.336588
134	C	0.971506	0.442854	0.176526
135	C	0.936505	0.427042	0.157657
136	C	0.913849	0.395339	0.189981
137	C	0.881728	0.388912	0.154257
138	C	0.880918	0.415867	0.094559
139	C	0.849007	0.416433	0.043729
140	C	0.848801	0.443731	0.98357
141	S	0.810484	0.436706	0.938817
142	C	0.794419	0.397598	0
143	C	0.817099	0.389448	0.053483
144	S	0.918743	0.448544	0.081799
145	C	0.989139	0.437984	0.032214
146	C	0.022739	0.453312	0.050222
147	S	0.038361	0.443402	0.855222
148	C	0.000344	0.42041	0.766344
149	N	0.97678	0.419145	0.869241
150	S	0.096641	0.523643	0.105861
151	C	0.194226	0.557148	0.212487
152	S	0.228014	0.590508	0.129032
153	H	0.154544	0.584437	0.945023
154	H	0.143674	0.498687	0.387815
155	H	0.081347	0.4584	0.423565
156	H	0.01341	0.506414	0.758237
157	H	0.91997	0.377491	0.236621
158	H	0.860595	0.365491	0.171461
159	H	0.869055	0.467597	0.962884
160	H	0.811142	0.365492	0.096927
161	H	0.996035	0.407597	0.632599
162	H	0.19702	0.541109	0.308903
