data_C102H51N9O6S18_2023-05-12_19:59:30
#******************************************
#
# CIF file created by Zeo++
# Zeo++ is an open source package to
# analyze microporous materials
#
#*******************************************

_cell_length_a		52.9846   
_cell_length_b		53.283   
_cell_length_c		7   
_cell_angle_alpha		90   
_cell_angle_beta		90   
_cell_angle_gamma		119.755   

_symmetry_space_group_name_H-M		'P1'
_symmetry_Int_Tables_number		1
_symmetry_cell_setting		Monoclinic

loop_
_symmetry_equiv_pos_as_xyz
'+x,+y,+z'

loop_
_atom_site_label
_atom_site_type_symbol
_atom_site_fract_x
_atom_site_fract_y
_atom_site_fract_z
1	C	0.362587	0.672784	0.999995
2	O	0.388234	0.677282	0.999991
3	C	0.3394	0.642724	0.999998
4	C	0.3439	0.620567	0
5	N	0.372609	0.625748	0
6	C	0.30974	0.637388	3e-06
7	O	0.288903	0.611479	5e-06
8	C	0.302617	0.660506	6e-06
9	C	0.275323	0.654927	5e-06
10	N	0.252762	0.625449	0
11	C	0.326919	0.690326	4e-06
12	O	0.321259	0.710318	7e-06
13	C	0.357057	0.697001	0.999999
14	C	0.37848	0.724206	0.999998
15	N	0.374178	0.748354	0
16	H	0.326151	0.598997	1e-06
17	H	0.269567	0.671486	8e-06
18	H	0.400146	0.72809	0.999997
19	C	0.637413	0.327216	0.999995
20	O	0.611766	0.322718	0.999991
21	C	0.6606	0.357276	0.999998
22	C	0.6561	0.379433	0
23	N	0.627391	0.374252	0
24	C	0.69026	0.362612	3e-06
25	O	0.711097	0.388521	5e-06
26	C	0.697383	0.339494	6e-06
27	C	0.724677	0.345073	5e-06
28	N	0.747238	0.374551	0
29	C	0.673081	0.309674	4e-06
30	O	0.678741	0.289682	7e-06
31	C	0.642943	0.302999	0.999999
32	C	0.62152	0.275794	0.999998
33	N	0.625822	0.251646	0
34	H	0.673849	0.401003	1e-06
35	H	0.730433	0.328514	8e-06
36	H	0.599854	0.27191	0.999997
37	C	0.60987	0.391546	0
38	C	0.598803	0.402465	0.132616
39	C	0.604578	0.397011	0.323128
40	C	0.595008	0.406522	0.510304
41	C	0.600612	0.401233	0.693394
42	C	0.589234	0.412464	0.833411
43	C	0.575199	0.426077	0.754537
44	C	0.561368	0.43966	0.857669
45	C	0.559529	0.441436	0.054215
46	C	0.544487	0.456223	0.111301
47	C	0.53517	0.465414	0.95692
48	C	0.518051	0.482248	0.97107
49	C	0.510091	0.49005	0.138116
50	N	0.495492	0.504416	0.090668
51	C	0.493828	0.506083	0.895102
52	C	0.47971	0.519982	0.802766
53	C	0.466052	0.533434	0.887695
54	C	0.454376	0.544926	0.751701
55	C	0.459248	0.540122	0.564564
56	C	0.450573	0.548661	0.39083
57	C	0.455413	0.543802	0.203499
58	C	0.443773	0.555294	0.067215
59	C	0.430282	0.568697	0.153589
60	C	0.415209	0.583604	0.044071
61	C	0.41407	0.58467	0.847359
62	S	0.396225	0.602338	0.771822
63	C	0.39013	0.608454	0
64	C	0.40116	0.59756	0.133064
65	S	0.431778	0.567291	0.39637
66	S	0.478075	0.521581	0.558913
67	C	0.507849	0.492307	0.818382
68	S	0.544549	0.456227	0.746445
69	S	0.576235	0.424829	0.509323
70	C	0.619786	0.382178	0.324741
71	S	0.626949	0.374979	0.098515
72	H	0.587206	0.413743	0.095519
73	H	0.612239	0.389928	0.728562
74	H	0.591436	0.410467	0.985624
75	H	0.56852	0.43257	0.155081
76	H	0.540864	0.45976	0.258586
77	H	0.513409	0.486763	0.286329
78	H	0.487168	0.512586	0.186048
79	H	0.464238	0.535227	0.040442
80	H	0.442911	0.556218	0.792045
81	H	0.466841	0.532458	0.163346
82	H	0.445492	0.55354	0.91429
83	H	0.422696	0.576085	0.742201
84	H	0.399288	0.599466	0.285727
85	H	0.510485	0.489738	0.66756
86	H	0.627215	0.375046	0.445916
87	C	0.607955	0.216758	0
88	C	0.597056	0.194915	0.132616
89	C	0.602498	0.20607	0.323128
90	C	0.593004	0.187113	0.510304
91	C	0.598283	0.197935	0.693394
92	C	0.587072	0.175473	0.833411
93	C	0.573485	0.148005	0.754537
94	C	0.559927	0.120768	0.857669
95	C	0.558154	0.117177	0.054215
96	C	0.543395	0.087542	0.111301
97	C	0.53422	0.069154	0.95692
98	C	0.517417	0.035421	0.97107
99	C	0.509629	0.019762	0.138116
100	N	0.49529	0.990985	0.090668
101	C	0.493625	0.987675	0.895102
102	C	0.479752	0.95984	0.802766
103	C	0.466325	0.932907	0.887695
104	C	0.454853	0.909889	0.751701
105	C	0.459649	0.919501	0.564564
106	C	0.451126	0.902399	0.39083
107	C	0.455977	0.912036	0.203499
108	C	0.444505	0.889054	0.067215
109	C	0.431126	0.862333	0.153589
110	C	0.416246	0.832549	0.044071
111	C	0.415182	0.830358	0.847359
112	S	0.397546	0.795075	0.771822
113	C	0.391441	0.782943	0
114	C	0.402314	0.804725	0.133064
115	S	0.432529	0.865217	0.39637
116	S	0.478156	0.956627	0.558913
117	C	0.507376	0.015291	0.818382
118	S	0.54339	0.087599	0.746445
119	S	0.574732	0.150274	0.509323
120	C	0.617303	0.235916	0.324741
121	S	0.62449	0.250185	0.098515
122	H	0.585799	0.172189	0.095519
123	H	0.609566	0.220718	0.728562
124	H	0.589065	0.179645	0.985624
125	H	0.567005	0.134918	0.155081
126	H	0.539864	0.080428	0.258586
127	H	0.51291	0.026324	0.286329
128	H	0.487135	0.974598	0.186048
129	H	0.464535	0.929322	0.040442
130	H	0.443583	0.88728	0.792045
131	H	0.4673	0.93466	0.163346
132	H	0.446256	0.892504	0.91429
133	H	0.423752	0.847458	0.742201
134	H	0.400412	0.800972	0.285727
135	H	0.50994	0.020462	0.66756
136	H	0.624422	0.250382	0.445916
137	C	0.781723	0.391247	0
138	C	0.80369	0.402172	0.132616
139	C	0.792473	0.39647	0.323128
140	C	0.811536	0.405916	0.510304
141	C	0.800654	0.400384	0.693394
142	C	0.823242	0.411615	0.833411
143	C	0.850865	0.42547	0.754537
144	C	0.878254	0.439124	0.857669
145	C	0.881866	0.440939	0.054215
146	C	0.911667	0.455787	0.111301
147	C	0.930158	0.464984	0.95692
148	C	0.964081	0.481882	0.97107
149	C	0.979828	0.48974	0.138116
150	N	0.008766	0.504151	0.090668
151	C	0.012095	0.505793	0.895102
152	C	0.040086	0.51973	0.802766
153	C	0.067171	0.533211	0.887695
154	C	0.090319	0.544737	0.751701
155	C	0.080652	0.539928	0.564564
156	C	0.09785	0.548491	0.39083
157	C	0.088159	0.543715	0.203499
158	C	0.11127	0.555204	0.067215
159	C	0.138141	0.568521	0.153589
160	C	0.168093	0.583399	0.044071
161	C	0.170296	0.584524	0.847359
162	S	0.205778	0.602139	0.771822
163	C	0.217978	0.608155	0
164	C	0.196074	0.597266	0.133064
165	S	0.135241	0.567043	0.39637
166	S	0.043318	0.521344	0.558913
167	C	0.984324	0.491954	0.818382
168	S	0.91161	0.455726	0.746445
169	S	0.848582	0.424449	0.509323
170	C	0.762459	0.381457	0.324741
171	S	0.74811	0.374388	0.098515
172	H	0.826543	0.41362	0.095519
173	H	0.777744	0.388906	0.728562
174	H	0.819048	0.40944	0.985624
175	H	0.864024	0.432064	0.155081
176	H	0.918821	0.459364	0.258586
177	H	0.973229	0.486465	0.286329
178	H	0.025245	0.512368	0.186048
179	H	0.070776	0.535002	0.040442
180	H	0.113055	0.556055	0.792045
181	H	0.065408	0.532434	0.163346
182	H	0.107801	0.553508	0.91429
183	H	0.1531	0.576009	0.742201
184	H	0.199848	0.599114	0.285727
185	H	0.979124	0.489351	0.66756
186	H	0.747912	0.374124	0.445916
