data_C72H36N24O6_2023-05-30_18:28:09
#******************************************
#
# CIF file created by Zeo++
# Zeo++ is an open source package to
# analyze microporous materials
#
#*******************************************

_cell_length_a		41.9824   
_cell_length_b		42.2809   
_cell_length_c		7   
_cell_angle_alpha		90   
_cell_angle_beta		90   
_cell_angle_gamma		119.692   

_symmetry_space_group_name_H-M		'P1'
_symmetry_Int_Tables_number		1
_symmetry_cell_setting		Monoclinic

loop_
_symmetry_equiv_pos_as_xyz
'+x,+y,+z'

loop_
_atom_site_label
_atom_site_type_symbol
_atom_site_fract_x
_atom_site_fract_y
_atom_site_fract_z
1	C	0.370243	0.674371	0.999995
2	O	0.402604	0.680036	0.999991
3	C	0.341029	0.636513	0.999998
4	C	0.346744	0.608608	0
5	N	0.382968	0.615133	0
6	C	0.303605	0.629793	3e-06
7	O	0.277348	0.597163	5e-06
8	C	0.294578	0.658908	6e-06
9	C	0.260139	0.651882	5e-06
10	N	0.231713	0.614757	0
11	C	0.3252	0.696464	4e-06
12	O	0.318023	0.721641	7e-06
13	C	0.363225	0.704871	0.999999
14	C	0.390218	0.739132	0.999998
15	N	0.384749	0.769545	0
16	H	0.324378	0.581443	1e-06
17	H	0.252848	0.672736	8e-06
18	H	0.417556	0.744024	0.999997
19	C	0.629757	0.325629	0.999995
20	O	0.597396	0.319964	0.999991
21	C	0.658971	0.363487	0.999998
22	C	0.653256	0.391392	0
23	N	0.617032	0.384867	0
24	C	0.696395	0.370207	3e-06
25	O	0.722652	0.402837	5e-06
26	C	0.705422	0.341092	6e-06
27	C	0.739861	0.348118	5e-06
28	N	0.768287	0.385243	0
29	C	0.6748	0.303536	4e-06
30	O	0.681977	0.278359	7e-06
31	C	0.636775	0.295129	0.999999
32	C	0.609782	0.260868	0.999998
33	N	0.615251	0.230455	0
34	H	0.675622	0.418557	1e-06
35	H	0.747152	0.327264	8e-06
36	H	0.582444	0.255976	0.999997
37	C	0.405108	0.593353	0
38	N	0.41549	0.583137	0.160102
39	C	0.434114	0.564816	0.131965
40	C	0.44255	0.556519	0.952424
41	C	0.462833	0.536563	0.919058
42	C	0.469856	0.529654	0.732469
43	C	0.488754	0.511063	0.703353
44	N	0.501217	0.498802	0.846028
45	C	0.49502	0.5049	0.029214
46	C	0.509639	0.490518	0.180182
47	C	0.506012	0.494086	0.375875
48	C	0.520686	0.479648	0.504998
49	C	0.538749	0.46188	0.437077
50	C	0.541789	0.458889	0.240951
51	C	0.5605	0.440482	0.156508
52	C	0.56345	0.437577	0.95929
53	N	0.580523	0.420782	0.877036
54	C	0.594892	0.406647	0
55	C	0.592258	0.409238	0.196233
56	N	0.575233	0.425987	0.278608
57	N	0.527427	0.473016	0.115828
58	C	0.47598	0.523631	0.067834
59	N	0.431726	0.567168	0.793234
60	C	0.413108	0.585484	0.820413
61	H	0.441971	0.557085	0.263747
62	H	0.460723	0.538638	0.609135
63	H	0.49454	0.505369	0.560138
64	H	0.492067	0.507805	0.432475
65	H	0.518067	0.482226	0.657875
66	H	0.550289	0.450528	0.536496
67	H	0.551921	0.448921	0.859467
68	H	0.603819	0.397866	0.294999
69	H	0.47139	0.528146	0.214891
70	H	0.404854	0.593605	0.691044
71	C	0.40648	0.813107	0
72	N	0.416672	0.833536	0.160102
73	C	0.434951	0.870179	0.131965
74	C	0.443229	0.886775	0.952424
75	C	0.463139	0.926685	0.919058
76	C	0.470032	0.940503	0.732469
77	C	0.488581	0.977686	0.703353
78	N	0.500813	0.002207	0.846028
79	C	0.49473	0.990013	0.029214
80	C	0.509078	0.018776	0.180182
81	C	0.505518	0.01164	0.375875
82	C	0.519924	0.040515	0.504998
83	C	0.537651	0.076053	0.437077
84	C	0.540634	0.082034	0.240951
85	C	0.559	0.118848	0.156508
86	C	0.561898	0.124656	0.95929
87	N	0.578655	0.158247	0.877036
88	C	0.592757	0.186517	0
89	C	0.590172	0.181335	0.196233
90	N	0.573462	0.147838	0.278608
91	N	0.526541	0.053779	0.115828
92	C	0.476042	0.952551	0.067834
93	N	0.432604	0.865478	0.793234
94	C	0.41433	0.828845	0.820413
95	H	0.442664	0.88564	0.263747
96	H	0.461069	0.922534	0.609135
97	H	0.494262	0.989072	0.560138
98	H	0.491831	0.984203	0.432475
99	H	0.517352	0.03536	0.657875
100	H	0.548977	0.098758	0.536496
101	H	0.55058	0.101971	0.859467
102	H	0.601518	0.204082	0.294999
103	H	0.471537	0.943521	0.214891
104	H	0.406228	0.812604	0.691044
105	C	0.187843	0.592976	0
106	N	0.167269	0.582763	0.160102
107	C	0.130366	0.564441	0.131965
108	C	0.113651	0.556142	0.952424
109	C	0.073458	0.536187	0.919058
110	C	0.059543	0.529278	0.732469
111	C	0.022095	0.510687	0.703353
112	N	0.997401	0.498427	0.846028
113	C	0.009681	0.504523	0.029214
114	C	0.980713	0.490141	0.180182
115	C	0.9879	0.493709	0.375875
116	C	0.958821	0.479273	0.504998
117	C	0.92303	0.461503	0.437077
118	C	0.917007	0.458512	0.240951
119	C	0.879931	0.440105	0.156508
120	C	0.874083	0.437202	0.95929
121	N	0.840253	0.420407	0.877036
122	C	0.811782	0.406271	0
123	C	0.817001	0.408862	0.196233
124	N	0.850736	0.425611	0.278608
125	N	0.945463	0.472641	0.115828
126	C	0.047409	0.523254	0.067834
127	N	0.1351	0.56679	0.793234
128	C	0.171992	0.585106	0.820413
129	H	0.114795	0.556711	0.263747
130	H	0.077639	0.538263	0.609135
131	H	0.010629	0.504995	0.560138
132	H	0.015532	0.507428	0.432475
133	H	0.964012	0.481849	0.657875
134	H	0.900164	0.45015	0.536496
135	H	0.896929	0.448544	0.859467
136	H	0.794093	0.397488	0.294999
137	H	0.056503	0.527769	0.214891
138	H	0.188349	0.593226	0.691044
