data_C78H36N12O6S12_2023-05-13_09:16:25
#******************************************
#
# CIF file created by Zeo++
# Zeo++ is an open source package to
# analyze microporous materials
#
#*******************************************

_cell_length_a		47.6728   
_cell_length_b		47.9713   
_cell_length_c		7   
_cell_angle_alpha		90   
_cell_angle_beta		90   
_cell_angle_gamma		119.728   

_symmetry_space_group_name_H-M		'P1'
_symmetry_Int_Tables_number		1
_symmetry_cell_setting		Monoclinic

loop_
_symmetry_equiv_pos_as_xyz
'+x,+y,+z'

loop_
_atom_site_label
_atom_site_type_symbol
_atom_site_fract_x
_atom_site_fract_y
_atom_site_fract_z
1	C	0.365842	0.673459	0.999995
2	O	0.394344	0.678454	0.999991
3	C	0.340091	0.64008	0.999998
4	C	0.345106	0.615476	0
5	N	0.37701	0.62123	0
6	C	0.307129	0.634155	3e-06
7	O	0.283986	0.605385	5e-06
8	C	0.299199	0.659826	6e-06
9	C	0.268867	0.653631	5e-06
10	N	0.243809	0.620898	0
11	C	0.32619	0.692939	4e-06
12	O	0.319887	0.715138	7e-06
13	C	0.359682	0.700351	0.999999
14	C	0.383475	0.73056	0.999998
15	N	0.378679	0.757375	0
16	H	0.325391	0.591524	1e-06
17	H	0.262459	0.672018	8e-06
18	H	0.407553	0.734873	0.999997
19	C	0.634158	0.326541	0.999995
20	O	0.605656	0.321546	0.999991
21	C	0.659909	0.35992	0.999998
22	C	0.654894	0.384524	0
23	N	0.62299	0.37877	0
24	C	0.692871	0.365845	3e-06
25	O	0.716014	0.394615	5e-06
26	C	0.700801	0.340174	6e-06
27	C	0.731133	0.346369	5e-06
28	N	0.756191	0.379102	0
29	C	0.67381	0.307061	4e-06
30	O	0.680113	0.284862	7e-06
31	C	0.640318	0.299649	0.999999
32	C	0.616525	0.26944	0.999998
33	N	0.621321	0.242625	0
34	H	0.674609	0.408476	1e-06
35	H	0.737541	0.327982	8e-06
36	H	0.592447	0.265127	0.999997
37	C	0.396493	0.602026	0
38	C	0.387382	0.611006	0.163828
39	S	0.399542	0.59902	0.361822
40	C	0.417186	0.581629	0.22779
41	C	0.433138	0.565905	0.316975
42	C	0.436847	0.562248	0.509611
43	C	0.453953	0.545387	0.546118
44	C	0.463221	0.536252	0.380965
45	C	0.481055	0.518674	0.358325
46	C	0.491711	0.508169	0.512844
47	N	0.508199	0.491917	0.494762
48	C	0.514071	0.486129	0.313419
49	C	0.531944	0.468513	0.299801
50	C	0.543134	0.457483	0.447548
51	C	0.559593	0.441259	0.382854
52	C	0.560891	0.43998	0.185829
53	C	0.575849	0.425236	0.075115
54	C	0.591606	0.409704	0.146616
55	C	0.603507	0.397974	0
56	C	0.596971	0.404418	0.820081
57	S	0.576186	0.424906	0.828622
58	S	0.541853	0.458746	0.084318
59	C	0.503431	0.496617	0.158759
60	N	0.486944	0.512869	0.177502
61	S	0.450701	0.548593	0.184106
62	C	0.413498	0.585264	0.034403
63	H	0.374272	0.623929	0.177985
64	H	0.42778	0.571186	0.622059
65	H	0.458983	0.54043	0.689126
66	H	0.487433	0.512385	0.659317
67	H	0.539593	0.460971	0.596806
68	H	0.569921	0.431079	0.479018
69	H	0.594456	0.406894	0.297621
70	H	0.603247	0.398232	0.684307
71	H	0.507637	0.492474	0.011938
72	H	0.422618	0.576275	0.922558
73	C	0.397844	0.795783	0
74	C	0.388882	0.777821	0.163828
75	S	0.400844	0.801794	0.361822
76	C	0.4182	0.836577	0.22779
77	C	0.433892	0.868025	0.316975
78	C	0.437541	0.875337	0.509611
79	C	0.454369	0.90906	0.546118
80	C	0.463485	0.92733	0.380965
81	C	0.481028	0.962486	0.358325
82	C	0.491511	0.983494	0.512844
83	N	0.50773	0.015999	0.494762
84	C	0.513506	0.027575	0.313419
85	C	0.531087	0.062808	0.299801
86	C	0.542095	0.084868	0.447548
87	C	0.558286	0.117315	0.382854
88	C	0.559562	0.119873	0.185829
89	C	0.574277	0.149361	0.075115
90	C	0.589777	0.180424	0.146616
91	C	0.601484	0.203885	0
92	C	0.595053	0.190999	0.820081
93	S	0.574607	0.150024	0.828622
94	S	0.540834	0.082342	0.084318
95	C	0.50304	0.006599	0.158759
96	N	0.486821	0.974096	0.177502
97	S	0.451169	0.902648	0.184106
98	C	0.414572	0.829307	0.034403
99	H	0.375986	0.751977	0.177985
100	H	0.428622	0.857462	0.622059
101	H	0.459316	0.918975	0.689126
102	H	0.487304	0.975062	0.659317
103	H	0.538614	0.07789	0.596806
104	H	0.568446	0.137676	0.479018
105	H	0.592582	0.186045	0.297621
106	H	0.601226	0.203371	0.684307
107	H	0.507175	0.014888	0.011938
108	H	0.423543	0.847284	0.922558
109	C	0.205161	0.601694	0
110	C	0.223235	0.610675	0.163828
111	S	0.199112	0.598688	0.361822
112	C	0.164112	0.581297	0.22779
113	C	0.132468	0.565573	0.316975
114	C	0.12511	0.561917	0.509611
115	C	0.091176	0.545056	0.546118
116	C	0.072792	0.535921	0.380965
117	C	0.037416	0.518342	0.358325
118	C	0.016277	0.507839	0.512844
119	N	0.983569	0.491586	0.494762
120	C	0.971921	0.485798	0.313419
121	C	0.936467	0.468181	0.299801
122	C	0.914269	0.457151	0.447548
123	C	0.881619	0.440928	0.382854
124	C	0.879045	0.439649	0.185829
125	C	0.849373	0.424905	0.075115
126	C	0.818116	0.409373	0.146616
127	C	0.794508	0.397643	0
128	C	0.807475	0.404085	0.820081
129	S	0.848706	0.424572	0.828622
130	S	0.916811	0.458415	0.084318
131	C	0.993027	0.496286	0.158759
132	N	0.025734	0.512537	0.177502
133	S	0.097628	0.548261	0.184106
134	C	0.171428	0.584932	0.034403
135	H	0.24924	0.623596	0.177985
136	H	0.143096	0.570854	0.622059
137	H	0.081199	0.540098	0.689126
138	H	0.024761	0.512055	0.659317
139	H	0.921291	0.460641	0.596806
140	H	0.861131	0.430748	0.479018
141	H	0.81246	0.406564	0.297621
142	H	0.795025	0.397899	0.684307
143	H	0.984686	0.49214	0.011938
144	H	0.153338	0.575943	0.922558
