data_C84H51N9O6S6_2023-05-11_06:09:19
#******************************************
#
# CIF file created by Zeo++
# Zeo++ is an open source package to
# analyze microporous materials
#
#*******************************************

_cell_length_a		44.5799   
_cell_length_b		44.8785   
_cell_length_c		7   
_cell_angle_alpha		90   
_cell_angle_beta		90   
_cell_angle_gamma		119.709   

_symmetry_space_group_name_H-M		'P1'
_symmetry_Int_Tables_number		1
_symmetry_cell_setting		Monoclinic

loop_
_symmetry_equiv_pos_as_xyz
'+x,+y,+z'

loop_
_atom_site_label
_atom_site_type_symbol
_atom_site_fract_x
_atom_site_fract_y
_atom_site_fract_z
1	C	0.368095	0.673926	0.999995
2	O	0.398572	0.679264	0.999991
3	C	0.340571	0.638253	0.999998
4	C	0.345943	0.611959	0
5	N	0.380059	0.618107	0
6	C	0.305325	0.631921	3e-06
7	O	0.280587	0.601174	5e-06
8	C	0.296833	0.659356	6e-06
9	C	0.264399	0.652735	5e-06
10	N	0.237617	0.617753	0
11	C	0.325684	0.694744	4e-06
12	O	0.318934	0.718469	7e-06
13	C	0.361496	0.702666	0.999999
14	C	0.386928	0.73495	0.999998
15	N	0.381788	0.763608	0
16	H	0.324871	0.586361	1e-06
17	H	0.25754	0.672386	8e-06
18	H	0.412675	0.73956	0.999997
19	C	0.631905	0.326074	0.999995
20	O	0.601428	0.320736	0.999991
21	C	0.659429	0.361747	0.999998
22	C	0.654057	0.388041	0
23	N	0.619941	0.381893	0
24	C	0.694675	0.368079	3e-06
25	O	0.719413	0.398826	5e-06
26	C	0.703167	0.340644	6e-06
27	C	0.735601	0.347265	5e-06
28	N	0.762383	0.382247	0
29	C	0.674316	0.305256	4e-06
30	O	0.681066	0.281531	7e-06
31	C	0.638504	0.297334	0.999999
32	C	0.613072	0.26505	0.999998
33	N	0.618212	0.236392	0
34	H	0.675129	0.413639	1e-06
35	H	0.74246	0.327614	8e-06
36	H	0.587325	0.26044	0.999997
37	C	0.400901	0.597584	0
38	C	0.415434	0.58325	0.88699
39	C	0.430885	0.568029	0.000295
40	C	0.427698	0.571186	0.195756
41	C	0.440328	0.558749	0.345866
42	C	0.436445	0.562588	0.533565
43	C	0.452148	0.547121	0.646633
44	C	0.466066	0.533396	0.531164
45	C	0.484083	0.515643	0.575712
46	C	0.490991	0.508852	0.757347
47	N	0.508809	0.491291	0.742389
48	C	0.513646	0.486504	0.553263
49	C	0.531398	0.469009	0.497013
50	C	0.544929	0.455585	0.618322
51	C	0.561132	0.439639	0.513726
52	C	0.558153	0.442675	0.324426
53	C	0.571447	0.429618	0.181247
54	C	0.569161	0.431951	0.984319
55	C	0.585107	0.416264	0.879381
56	C	0.599099	0.402416	0
57	S	0.593441	0.407905	0.233277
58	C	0.538619	0.461975	0.295196
59	C	0.498407	0.501515	0.447515
60	C	0.460058	0.539302	0.326543
61	S	0.405485	0.593085	0.23599
62	H	0.415201	0.583468	0.732332
63	H	0.443881	0.555214	0.940078
64	H	0.423684	0.575168	0.59839
65	H	0.452234	0.547047	0.800777
66	H	0.484896	0.514873	0.896598
67	H	0.517026	0.483214	0.855132
68	H	0.544651	0.455776	0.772399
69	H	0.573569	0.427322	0.585197
70	H	0.556462	0.444502	0.917222
71	H	0.586048	0.415397	0.725021
72	H	0.514482	0.446217	0.2174
73	H	0.554455	0.486005	0.217797
74	H	0.497801	0.5021	0.293051
75	H	0.444432	0.515041	0.250696
76	H	0.484457	0.554907	0.250637
77	C	0.402268	0.804656	0
78	C	0.41657	0.833299	0.88699
79	C	0.431759	0.863735	0.000295
80	C	0.428608	0.857441	0.195756
81	C	0.441019	0.882315	0.345866
82	C	0.437188	0.874652	0.533565
83	C	0.452622	0.905582	0.646633
84	C	0.466317	0.933012	0.531164
85	C	0.484031	0.968505	0.575712
86	C	0.490808	0.9821	0.757347
87	N	0.508331	0.017206	0.742389
88	C	0.513107	0.026755	0.553263
89	C	0.530565	0.061731	0.497013
90	C	0.54396	0.088479	0.618322
91	C	0.559872	0.120381	0.513726
92	C	0.556842	0.114412	0.324426
93	C	0.569871	0.14056	0.181247
94	C	0.567543	0.135976	0.984319
95	C	0.583196	0.167366	0.879381
96	C	0.597014	0.19499	0
97	S	0.591538	0.18393	0.233277
98	C	0.537583	0.075876	0.295196
99	C	0.498129	0.996739	0.447515
100	C	0.460423	0.921189	0.326543
101	S	0.406757	0.813668	0.23599
102	H	0.416353	0.832852	0.732332
103	H	0.444546	0.889347	0.940078
104	H	0.424635	0.849506	0.59839
105	H	0.452695	0.905741	0.800777
106	H	0.484799	0.970076	0.896598
107	H	0.516391	0.033375	0.855132
108	H	0.543771	0.088014	0.772399
109	H	0.572163	0.144944	0.585197
110	H	0.555018	0.11092	0.917222
111	H	0.584061	0.16916	0.725021
112	H	0.553541	0.067636	0.2174
113	H	0.513371	0.067672	0.217797
114	H	0.497546	0.995558	0.293051
115	H	0.484867	0.929831	0.250696
116	H	0.444617	0.929842	0.250637
117	C	0.196295	0.597229	0
118	C	0.16746	0.582919	0.88699
119	C	0.13682	0.567704	0.000295
120	C	0.143157	0.570842	0.195756
121	C	0.118117	0.558405	0.345866
122	C	0.125831	0.562229	0.533565
123	C	0.094694	0.546766	0.646633
124	C	0.067081	0.533061	0.531164
125	C	0.03135	0.515319	0.575712
126	C	0.017664	0.508516	0.757347
127	N	0.982324	0.490971	0.742389
128	C	0.972711	0.486209	0.553263
129	C	0.937501	0.468728	0.497013
130	C	0.910574	0.455404	0.618322
131	C	0.878459	0.439449	0.513726
132	C	0.884468	0.442382	0.324426
133	C	0.858146	0.429291	0.181247
134	C	0.86276	0.431541	0.984319
135	C	0.831161	0.415839	0.879381
136	C	0.803351	0.402062	0
137	S	0.814485	0.407634	0.233277
138	C	0.923261	0.461616	0.295196
139	C	0.002928	0.501214	0.447515
140	C	0.078982	0.538977	0.326543
141	S	0.187222	0.592715	0.23599
142	H	0.167909	0.583148	0.732332
143	H	0.111037	0.554907	0.940078
144	H	0.151145	0.574794	0.59839
145	H	0.094534	0.546681	0.800777
146	H	0.029768	0.514519	0.896598
147	H	0.966047	0.48288	0.855132
148	H	0.911042	0.455678	0.772399
149	H	0.853732	0.427203	0.585197
150	H	0.887983	0.444046	0.917222
151	H	0.829355	0.414912	0.725021
152	H	0.93144	0.485615	0.2174
153	H	0.931638	0.445792	0.217797
154	H	0.004117	0.501811	0.293051
155	H	0.070165	0.554596	0.250696
156	H	0.070389	0.514719	0.250637
