data_C120H66N6O6S6_2023-05-11_11:42:09
#******************************************
#
# CIF file created by Zeo++
# Zeo++ is an open source package to
# analyze microporous materials
#
#*******************************************

_cell_length_a		50.4663   
_cell_length_b		50.7647   
_cell_length_c		7   
_cell_angle_alpha		90   
_cell_angle_beta		90   
_cell_angle_gamma		119.743   

_symmetry_space_group_name_H-M		'P1'
_symmetry_Int_Tables_number		1
_symmetry_cell_setting		Monoclinic

loop_
_symmetry_equiv_pos_as_xyz
'+x,+y,+z'

loop_
_atom_site_label
_atom_site_type_symbol
_atom_site_fract_x
_atom_site_fract_y
_atom_site_fract_z
1	C	0.364045	0.673087	0.999995
2	O	0.390971	0.677807	0.999991
3	C	0.339709	0.641539	0.999998
4	C	0.344439	0.618286	0
5	N	0.37458	0.623724	0
6	C	0.308571	0.63594	3e-06
7	O	0.2867	0.608749	5e-06
8	C	0.301086	0.660201	6e-06
9	C	0.272431	0.654347	5e-06
10	N	0.248752	0.62341	0
11	C	0.326593	0.691497	4e-06
12	O	0.320645	0.712478	7e-06
13	C	0.358233	0.698502	0.999999
14	C	0.380718	0.727053	0.999998
15	N	0.376195	0.752396	0
16	H	0.32581	0.595649	1e-06
17	H	0.266384	0.671725	8e-06
18	H	0.403465	0.731129	0.999997
19	C	0.635955	0.326913	0.999995
20	O	0.609029	0.322193	0.999991
21	C	0.660291	0.358461	0.999998
22	C	0.655561	0.381714	0
23	N	0.62542	0.376276	0
24	C	0.691429	0.36406	3e-06
25	O	0.7133	0.391251	5e-06
26	C	0.698914	0.339799	6e-06
27	C	0.727569	0.345653	5e-06
28	N	0.751248	0.37659	0
29	C	0.673407	0.308503	4e-06
30	O	0.679355	0.287522	7e-06
31	C	0.641767	0.301498	0.999999
32	C	0.619282	0.272947	0.999998
33	N	0.623805	0.247604	0
34	H	0.67419	0.404351	1e-06
35	H	0.733616	0.328275	8e-06
36	H	0.596535	0.268871	0.999997
37	C	0.392979	0.605573	0
38	C	0.404196	0.59389	0.866969
39	C	0.426333	0.587609	0.949752
40	C	0.431302	0.594698	0.142869
41	C	0.451231	0.591837	0.275331
42	C	0.468403	0.579321	0.227096
43	C	0.486229	0.579245	0.388927
44	C	0.507541	0.567512	0.394353
45	C	0.538458	0.588319	0.363697
46	C	0.560023	0.578824	0.3652
47	C	0.551134	0.548345	0.397192
48	C	0.57282	0.538883	0.398598
49	C	0.564114	0.508526	0.430662
50	C	0.533393	0.486408	0.462602
51	C	0.523747	0.455356	0.496292
52	C	0.544989	0.443534	0.500447
53	C	0.557845	0.440522	0.660737
54	C	0.578164	0.427738	0.612944
55	C	0.574807	0.423775	0.397881
56	C	0.589177	0.412254	0.273802
57	C	0.60952	0.402489	0.324905
58	C	0.619863	0.392198	0.167072
59	C	0.607021	0.394427	0
60	S	0.583157	0.408457	0.029689
61	C	0.555412	0.433173	0.339561
62	C	0.492812	0.434532	0.526233
63	C	0.471235	0.444008	0.524082
64	C	0.480126	0.474479	0.491936
65	C	0.458434	0.483929	0.490289
66	C	0.467148	0.514295	0.458582
67	C	0.497878	0.536424	0.426924
68	C	0.52001	0.526901	0.428355
69	C	0.511257	0.495926	0.460923
70	C	0.480298	0.59193	0.539254
71	C	0.457405	0.601215	0.483612
72	S	0.408438	0.609147	0.21911
73	H	0.397188	0.589946	0.718684
74	H	0.438092	0.578263	0.869365
75	H	0.469514	0.570177	0.089906
76	H	0.545898	0.612133	0.338163
77	H	0.583868	0.595499	0.340844
78	H	0.596838	0.555032	0.374715
79	H	0.581884	0.502314	0.43042
80	H	0.554356	0.446379	0.803246
81	H	0.570389	0.405977	0.684917
82	H	0.601811	0.443596	0.653191
83	H	0.616791	0.40269	0.470858
84	H	0.635731	0.383738	0.17762
85	H	0.547888	0.433511	0.195546
86	H	0.485362	0.41071	0.551396
87	H	0.447371	0.427312	0.547785
88	H	0.434403	0.467763	0.513858
89	H	0.449378	0.520505	0.459196
90	H	0.49016	0.59499	0.680067
91	H	0.436699	0.589146	0.570102
92	H	0.467056	0.625737	0.500167
93	C	0.39431	0.788697	0
94	C	0.405974	0.811442	0.866969
95	C	0.412162	0.839641	0.949752
96	C	0.405024	0.837516	0.142869
97	C	0.407792	0.860123	0.275331
98	C	0.420261	0.889601	0.227096
99	C	0.420245	0.907353	0.388927
100	C	0.431907	0.940157	0.394353
101	C	0.410872	0.950115	0.363697
102	C	0.420287	0.980943	0.3652
103	C	0.450913	0.002451	0.397192
104	C	0.460295	0.033367	0.398598
105	C	0.490797	0.054934	0.430662
106	C	0.513147	0.046477	0.462602
107	C	0.544353	0.067804	0.496292
108	C	0.556104	0.100627	0.500447
109	C	0.55906	0.116371	0.660737
110	C	0.571781	0.149236	0.612944
111	C	0.575775	0.149851	0.397881
112	C	0.58726	0.175561	0.273802
113	C	0.596952	0.205446	0.324905
114	C	0.607224	0.22594	0.167072
115	C	0.605055	0.21099	0
116	S	0.5911	0.173369	0.029689
117	C	0.566446	0.12127	0.339561
118	C	0.565406	0.057846	0.526233
119	C	0.556009	0.027024	0.524082
120	C	0.525391	0.005527	0.491936
121	C	0.516021	0.974616	0.490289
122	C	0.485509	0.953047	0.458582
123	C	0.463148	0.961503	0.426924
124	C	0.472589	0.992923	0.428355
125	C	0.503712	0.015058	0.460923
126	C	0.407549	0.888852	0.539254
127	C	0.398351	0.856916	0.483612
128	S	0.390645	0.800471	0.21911
129	H	0.409968	0.808416	0.718684
130	H	0.421478	0.860599	0.869365
131	H	0.42943	0.8998	0.089906
132	H	0.386939	0.933799	0.338163
133	H	0.403433	0.987998	0.340844
134	H	0.443967	0.041116	0.374715
135	H	0.496938	0.078735	0.43042
136	H	0.553201	0.107085	0.803246
137	H	0.593655	0.163177	0.684917
138	H	0.555748	0.156908	0.653191
139	H	0.596714	0.212457	0.470858
140	H	0.615631	0.250091	0.17762
141	H	0.566145	0.113473	0.195546
142	H	0.589345	0.074158	0.551396
143	H	0.572884	0.019971	0.547785
144	H	0.532366	0.966871	0.513858
145	H	0.47937	0.929249	0.459196
146	H	0.404427	0.895587	0.680067
147	H	0.410567	0.84839	0.570102
148	H	0.373697	0.842089	0.500167
149	C	0.212237	0.60526	0
150	C	0.189356	0.594198	0.866969
151	C	0.161031	0.572279	0.949752
152	C	0.1632	0.567315	0.142869
153	C	0.140504	0.54757	0.275331
154	C	0.110862	0.530608	0.227096
155	C	0.093052	0.512932	0.388927
156	C	0.060078	0.491861	0.394353
157	C	0.050196	0.461096	0.363697
158	C	0.019216	0.439763	0.3652
159	C	0.997479	0.448734	0.397192
160	C	0.966411	0.42728	0.398598
161	C	0.944615	0.436069	0.430662
162	C	0.952986	0.466645	0.462602
163	C	0.931426	0.47637	0.496292
164	C	0.898433	0.455368	0.500447
165	C	0.882621	0.442636	0.660737
166	C	0.849581	0.422555	0.612944
167	C	0.848944	0.425904	0.397881
168	C	0.823089	0.411714	0.273802
169	C	0.793054	0.391594	0.324905
170	C	0.772439	0.381391	0.167072
171	C	0.78745	0.394113	0
172	S	0.825269	0.417703	0.029689
173	C	0.877668	0.445087	0.339561
174	C	0.941309	0.507152	0.526233
175	C	0.972282	0.528498	0.524082
176	C	0.994009	0.519524	0.491936
177	C	0.025071	0.540984	0.490289
178	C	0.046868	0.532187	0.458582
179	C	0.0385	0.501603	0.426924
180	C	0.006927	0.479706	0.428355
181	C	0.984558	0.488545	0.460923
182	C	0.11168	0.518748	0.539254
183	C	0.14377	0.541399	0.483612
184	S	0.200443	0.589912	0.21911
185	H	0.192371	0.601167	0.718684
186	H	0.139955	0.560668	0.869365
187	H	0.100582	0.529553	0.089906
188	H	0.06669	0.453597	0.338163
189	H	0.012225	0.416032	0.340844
190	H	0.958721	0.403381	0.374715
191	H	0.920704	0.418481	0.43042
192	H	0.891969	0.446065	0.803246
193	H	0.835481	0.430376	0.684917
194	H	0.841967	0.399026	0.653191
195	H	0.786022	0.384383	0.470858
196	H	0.748164	0.3657	0.17762
197	H	0.885493	0.452546	0.195546
198	H	0.924819	0.514662	0.551396
199	H	0.979271	0.552247	0.547785
200	H	0.032757	0.564896	0.513858
201	H	0.070778	0.549776	0.459196
202	H	0.104939	0.508953	0.680067
203	H	0.152261	0.561993	0.570102
204	H	0.158774	0.531704	0.500167
