data_C48H24N18O6_2023-05-30_11:25:20
#******************************************
#
# CIF file created by Zeo++
# Zeo++ is an open source package to
# analyze microporous materials
#
#*******************************************

_cell_length_a		30.2539   
_cell_length_b		30.5526   
_cell_length_c		7   
_cell_angle_alpha		90   
_cell_angle_beta		90   
_cell_angle_gamma		119.573   

_symmetry_space_group_name_H-M		'P1'
_symmetry_Int_Tables_number		1
_symmetry_cell_setting		Monoclinic

loop_
_symmetry_equiv_pos_as_xyz
'+x,+y,+z'

loop_
_atom_site_label
_atom_site_type_symbol
_atom_site_fract_x
_atom_site_fract_y
_atom_site_fract_z
1	C	0.384526	0.677316	0.999995
2	O	0.429413	0.685146	0.999991
3	C	0.344112	0.624987	0.999998
4	C	0.352136	0.586415	0
5	N	0.402381	0.595435	0
6	C	0.292202	0.615698	3e-06
7	O	0.255875	0.570596	5e-06
8	C	0.279579	0.655943	6e-06
9	C	0.231813	0.646231	5e-06
10	N	0.19249	0.594915	0
11	C	0.321947	0.707854	4e-06
12	O	0.311905	0.742655	7e-06
13	C	0.374685	0.719474	0.999999
14	C	0.412029	0.766832	0.999998
15	N	0.404339	0.80887	0
16	H	0.321189	0.548866	1e-06
17	H	0.221626	0.675057	8e-06
18	H	0.449949	0.773594	0.999997
19	C	0.615474	0.322684	0.999995
20	O	0.570587	0.314854	0.999991
21	C	0.655888	0.375013	0.999998
22	C	0.647864	0.413585	0
23	N	0.597619	0.404565	0
24	C	0.707798	0.384302	3e-06
25	O	0.744125	0.429404	5e-06
26	C	0.720421	0.344057	6e-06
27	C	0.768187	0.353769	5e-06
28	N	0.80751	0.405085	0
29	C	0.678053	0.292146	4e-06
30	O	0.688095	0.257345	7e-06
31	C	0.625315	0.280526	0.999999
32	C	0.587971	0.233168	0.999998
33	N	0.595661	0.19113	0
34	H	0.678811	0.451134	1e-06
35	H	0.778374	0.324943	8e-06
36	H	0.550051	0.226406	0.999997
37	C	0.433177	0.565329	0
38	N	0.482374	0.577144	0.987255
39	C	0.498878	0.558446	0.129476
40	C	0.468006	0.529029	0.278615
41	C	0.486064	0.511586	0.439878
42	C	0.513286	0.487615	0.442982
43	C	0.532146	0.469718	0.284685
44	C	0.56359	0.449183	0.319021
45	N	0.581661	0.431481	0.179038
46	C	0.566823	0.434671	0
47	C	0.535455	0.454858	0.964173
48	N	0.517653	0.472702	0.104831
49	N	0.419088	0.518699	0.293051
50	C	0.402369	0.536839	0.14986
51	H	0.538552	0.568434	0.12029
52	H	0.47368	0.518922	0.576401
53	H	0.521879	0.47861	0.583878
54	H	0.575516	0.446214	0.462401
55	H	0.523405	0.457482	0.820722
56	H	0.362962	0.527659	0.160619
57	C	0.434349	0.869083	0
58	N	0.422047	0.905878	0.987255
59	C	0.440707	0.940689	0.129476
60	C	0.470553	0.939414	0.278615
61	C	0.487938	0.974513	0.439878
62	C	0.511809	0.025119	0.442982
63	C	0.529645	0.061459	0.284685
64	C	0.550024	0.112822	0.319021
65	N	0.56767	0.148191	0.179038
66	C	0.56459	0.130398	0
67	C	0.544559	0.079455	0.964173
68	N	0.526768	0.044211	0.104831
69	N	0.48136	0.901422	0.293051
70	C	0.463261	0.866952	0.14986
71	H	0.430323	0.969905	0.12029
72	H	0.480667	0.955029	0.576401
73	H	0.520791	0.04252	0.583878
74	H	0.552908	0.127525	0.462401
75	H	0.542024	0.064972	0.820722
76	H	0.47283	0.837198	0.160619
77	C	0.131685	0.564808	0
78	N	0.09479	0.516199	0.987255
79	C	0.059625	0.500085	0.129476
80	C	0.060652	0.530778	0.278615
81	C	0.025208	0.513121	0.439878
82	C	0.974115	0.486486	0.442982
83	C	0.93742	0.468043	0.284685
84	C	0.885595	0.437214	0.319021
85	N	0.849879	0.419548	0.179038
86	C	0.867797	0.434151	0
87	C	0.919195	0.464907	0.964173
88	N	0.954789	0.482308	0.104831
89	N	0.098763	0.5791	0.293051
90	C	0.13358	0.595429	0.14986
91	H	0.030335	0.46088	0.12029
92	H	0.044863	0.525269	0.576401
93	H	0.95654	0.47809	0.583878
94	H	0.870786	0.425481	0.462401
95	H	0.933781	0.476767	0.820722
96	H	0.163418	0.634363	0.160619
