data_C66H30N6O6S12_2023-05-27_20:20:11
#******************************************
#
# CIF file created by Zeo++
# Zeo++ is an open source package to
# analyze microporous materials
#
#*******************************************

_cell_length_a		39.3962   
_cell_length_b		39.6948   
_cell_length_c		7   
_cell_angle_alpha		90   
_cell_angle_beta		90   
_cell_angle_gamma		119.671   

_symmetry_space_group_name_H-M		'P1'
_symmetry_Int_Tables_number		1
_symmetry_cell_setting		Monoclinic

loop_
_symmetry_equiv_pos_as_xyz
'+x,+y,+z'

loop_
_atom_site_label
_atom_site_type_symbol
_atom_site_fract_x
_atom_site_fract_y
_atom_site_fract_z
1	C	0.372663	0.674871	0.999995
2	O	0.407145	0.680904	0.999991
3	C	0.341547	0.634555	0.999998
4	C	0.34765	0.604838	0
5	N	0.386249	0.611787	0
6	C	0.301669	0.627399	3e-06
7	O	0.273703	0.59265	5e-06
8	C	0.292037	0.658404	6e-06
9	C	0.255341	0.650922	5e-06
10	N	0.225065	0.611386	0
11	C	0.324653	0.698399	4e-06
12	O	0.316994	0.725211	7e-06
13	C	0.36517	0.707352	0.999999
14	C	0.393921	0.743838	0.999998
15	N	0.388079	0.776226	0
16	H	0.323827	0.575908	1e-06
17	H	0.247562	0.673131	8e-06
18	H	0.423051	0.749048	0.999997
19	C	0.627337	0.325129	0.999995
20	O	0.592855	0.319096	0.999991
21	C	0.658453	0.365445	0.999998
22	C	0.65235	0.395162	0
23	N	0.613751	0.388213	0
24	C	0.698331	0.372601	3e-06
25	O	0.726297	0.40735	5e-06
26	C	0.707963	0.341596	6e-06
27	C	0.744659	0.349078	5e-06
28	N	0.774935	0.388614	0
29	C	0.675347	0.301601	4e-06
30	O	0.683006	0.274789	7e-06
31	C	0.63483	0.292648	0.999999
32	C	0.606079	0.256162	0.999998
33	N	0.611921	0.223774	0
34	H	0.676173	0.424092	1e-06
35	H	0.752438	0.326869	8e-06
36	H	0.576949	0.250952	0.999997
37	C	0.409852	0.588592	0
38	C	0.429593	0.569192	0.043317
39	C	0.432767	0.566072	0.245269
40	C	0.453599	0.5456	0.345425
41	C	0.456587	0.542664	0.539846
42	C	0.477073	0.522531	0.587601
43	C	0.48929	0.510525	0.428946
44	C	0.510711	0.489476	0.428946
45	C	0.522929	0.47747	0.587601
46	C	0.543415	0.457338	0.539846
47	C	0.546402	0.454401	0.345425
48	C	0.567233	0.433929	0.245269
49	C	0.584824	0.416644	0.34471
50	S	0.604884	0.396929	0.195284
51	C	0.590148	0.411408	0
52	C	0.570407	0.430808	0.043317
53	S	0.524637	0.475789	0.223595
54	S	0.475364	0.524212	0.223595
55	C	0.415178	0.583357	0.34471
56	S	0.395117	0.603072	0.195283
57	H	0.441142	0.557843	0.936445
58	H	0.444899	0.554149	0.645178
59	H	0.482406	0.517291	0.733423
60	H	0.517597	0.482712	0.733423
61	H	0.555103	0.445853	0.645178
62	H	0.587173	0.414336	0.49737
63	H	0.558858	0.442156	0.936445
64	H	0.412828	0.585666	0.497371
65	C	0.411218	0.822616	0
66	C	0.43057	0.861417	0.043317
67	C	0.433683	0.867656	0.245269
68	C	0.454104	0.9086	0.345425
69	C	0.457034	0.914473	0.539846
70	C	0.477117	0.954737	0.587601
71	C	0.489093	0.97875	0.428946
72	C	0.510092	0.02085	0.428946
73	C	0.522067	0.044862	0.587601
74	C	0.542151	0.085127	0.539846
75	C	0.545081	0.091	0.345425
76	C	0.565503	0.131944	0.245269
77	C	0.582745	0.166515	0.34471
78	S	0.602412	0.205944	0.195284
79	C	0.587968	0.176984	0
80	C	0.568616	0.138183	0.043317
81	S	0.523745	0.048222	0.223595
82	S	0.47544	0.951378	0.223595
83	C	0.416439	0.833085	0.34471
84	S	0.396773	0.793656	0.195283
85	H	0.441891	0.884115	0.936445
86	H	0.445576	0.891501	0.645178
87	H	0.482345	0.965219	0.733423
88	H	0.516839	0.034381	0.733423
89	H	0.553608	0.108099	0.645178
90	H	0.585047	0.171132	0.49737
91	H	0.557295	0.115485	0.936445
92	H	0.414137	0.828468	0.497371
93	C	0.178324	0.588191	0
94	C	0.13923	0.56879	0.043317
95	C	0.132943	0.565671	0.245269
96	C	0.09169	0.545199	0.345425
97	C	0.085773	0.542263	0.539846
98	C	0.045203	0.52213	0.587601
99	C	0.021009	0.510124	0.428946
100	C	0.978591	0.489073	0.428946
101	C	0.954397	0.477066	0.587601
102	C	0.913828	0.456934	0.539846
103	C	0.90791	0.453998	0.345425
104	C	0.866657	0.433527	0.245269
105	C	0.831824	0.41624	0.34471
106	S	0.792097	0.396526	0.195284
107	C	0.821277	0.411007	0
108	C	0.86037	0.430408	0.043317
109	S	0.951012	0.475388	0.223595
110	S	0.048589	0.52381	0.223595
111	C	0.167776	0.582957	0.34471
112	S	0.207503	0.602672	0.195283
113	H	0.11636	0.557441	0.936445
114	H	0.108919	0.553749	0.645178
115	H	0.034643	0.51689	0.733423
116	H	0.964957	0.482306	0.733423
117	H	0.890682	0.445447	0.645178
118	H	0.827172	0.413931	0.49737
119	H	0.88324	0.441757	0.936445
120	H	0.172428	0.585266	0.497371
