data_C81H39N9O6S12_2023-05-15_05:16:36
#******************************************
#
# CIF file created by Zeo++
# Zeo++ is an open source package to
# analyze microporous materials
#
#*******************************************

_cell_length_a		48.9129   
_cell_length_b		49.2114   
_cell_length_c		7   
_cell_angle_alpha		90   
_cell_angle_beta		90   
_cell_angle_gamma		119.735   

_symmetry_space_group_name_H-M		'P1'
_symmetry_Int_Tables_number		1
_symmetry_cell_setting		Monoclinic

loop_
_symmetry_equiv_pos_as_xyz
'+x,+y,+z'

loop_
_atom_site_label
_atom_site_type_symbol
_atom_site_fract_x
_atom_site_fract_y
_atom_site_fract_z
1	C	0.365019	0.673289	0.999995
2	O	0.392799	0.678158	0.999991
3	C	0.339916	0.640748	0.999998
4	C	0.3448	0.616763	0
5	N	0.375897	0.622372	0
6	C	0.307789	0.634972	3e-06
7	O	0.285229	0.606926	5e-06
8	C	0.300063	0.659998	6e-06
9	C	0.270499	0.653959	5e-06
10	N	0.246073	0.622048	0
11	C	0.326375	0.692278	4e-06
12	O	0.320234	0.71392	7e-06
13	C	0.359018	0.699505	0.999999
14	C	0.382213	0.728954	0.999998
15	N	0.377542	0.755095	0
16	H	0.325583	0.593413	1e-06
17	H	0.264257	0.671884	8e-06
18	H	0.405681	0.733159	0.999997
19	C	0.634981	0.326711	0.999995
20	O	0.607201	0.321842	0.999991
21	C	0.660084	0.359252	0.999998
22	C	0.6552	0.383237	0
23	N	0.624103	0.377628	0
24	C	0.692211	0.365028	3e-06
25	O	0.714771	0.393074	5e-06
26	C	0.699937	0.340002	6e-06
27	C	0.729501	0.346041	5e-06
28	N	0.753927	0.377952	0
29	C	0.673625	0.307722	4e-06
30	O	0.679766	0.28608	7e-06
31	C	0.640982	0.300495	0.999999
32	C	0.617787	0.271046	0.999998
33	N	0.622458	0.244905	0
34	H	0.674417	0.406587	1e-06
35	H	0.735743	0.328116	8e-06
36	H	0.594319	0.266841	0.999997
37	C	0.605117	0.39635	0
38	C	0.610418	0.391127	0.184913
39	S	0.594921	0.406411	0.342198
40	C	0.58095	0.420182	0.161819
41	C	0.564071	0.436825	0.202847
42	C	0.55668	0.444112	0.379004
43	C	0.539777	0.460778	0.36547
44	C	0.534287	0.466193	0.178997
45	C	0.517733	0.482515	0.108309
46	C	0.513664	0.486517	0.914509
47	C	0.497745	0.502213	0.857057
48	C	0.485866	0.513936	0.994731
49	C	0.468856	0.530709	0.944311
50	C	0.46174	0.537722	0.766085
51	C	0.444819	0.554408	0.775228
52	C	0.439072	0.560079	0.960259
53	C	0.422513	0.576407	0.017931
54	C	0.409405	0.589328	0.897927
55	C	0.394883	0.60365	0
56	C	0.396857	0.601711	0.194127
57	S	0.416514	0.582332	0.253623
58	S	0.45455	0.544818	0.119492
59	N	0.489384	0.510478	0.183086
60	C	0.504931	0.495149	0.234349
61	S	0.550139	0.450565	0.024243
62	C	0.588346	0.412886	0.984791
63	H	0.622523	0.379193	0.236135
64	H	0.562958	0.437921	0.514085
65	H	0.532169	0.468278	0.490171
66	H	0.522667	0.47763	0.803431
67	H	0.495003	0.504908	0.705759
68	H	0.468232	0.531319	0.632654
69	H	0.43733	0.56179	0.649524
70	H	0.410216	0.588522	0.743601
71	H	0.387858	0.610588	0.304178
72	H	0.506615	0.493497	0.388188
73	H	0.581999	0.419141	0.850235
74	C	0.603119	0.207139	0
75	C	0.608331	0.217589	0.184913
76	S	0.593078	0.187025	0.342198
77	C	0.579334	0.159478	0.161819
78	C	0.562723	0.12619	0.202847
79	C	0.55545	0.111615	0.379004
80	C	0.538817	0.078282	0.36547
81	C	0.533413	0.067455	0.178997
82	C	0.517123	0.034809	0.108309
83	C	0.513129	0.026796	0.914509
84	C	0.497464	0.995402	0.857057
85	C	0.485763	0.971965	0.994731
86	C	0.469024	0.93842	0.944311
87	C	0.462024	0.92439	0.766085
88	C	0.445371	0.891019	0.775228
89	C	0.439712	0.879681	0.960259
90	C	0.423415	0.847026	0.017931
91	C	0.410521	0.82118	0.897927
92	C	0.396226	0.792538	0
93	C	0.398161	0.796423	0.194127
94	S	0.417502	0.835185	0.253623
95	S	0.454943	0.910205	0.119492
96	N	0.489215	0.978892	0.183086
97	C	0.504514	0.009552	0.234349
98	S	0.54901	0.098713	0.024243
99	C	0.586616	0.174067	0.984791
100	H	0.620242	0.241459	0.236135
101	H	0.56163	0.123997	0.514085
102	H	0.531332	0.063281	0.490171
103	H	0.521998	0.044559	0.803431
104	H	0.494775	0.990004	0.705759
105	H	0.468415	0.937195	0.632654
106	H	0.438004	0.876253	0.649524
107	H	0.411324	0.822784	0.743601
108	H	0.389302	0.778673	0.304178
109	H	0.506162	0.012864	0.388188
110	H	0.580372	0.161552	0.850235
111	C	0.791275	0.396026	0
112	C	0.780761	0.390799	0.184913
113	S	0.811512	0.406079	0.342198
114	C	0.839227	0.419855	0.161819
115	C	0.872717	0.436499	0.202847
116	C	0.887381	0.443788	0.379004
117	C	0.920917	0.460455	0.36547
118	C	0.93181	0.465867	0.178997
119	C	0.964655	0.48219	0.108309
120	C	0.972717	0.486203	0.914509
121	C	0.004302	0.5019	0.857057
122	C	0.027882	0.513613	0.994731
123	C	0.061631	0.530386	0.944311
124	C	0.075747	0.537402	0.766085
125	C	0.109321	0.554088	0.775228
126	C	0.120728	0.559755	0.960259
127	C	0.153582	0.576082	0.017931
128	C	0.179585	0.589007	0.897927
129	C	0.208402	0.603327	0
130	C	0.204493	0.601381	0.194127
131	S	0.165495	0.581998	0.253623
132	S	0.090018	0.544492	0.119492
133	N	0.020912	0.510144	0.183086
134	C	0.990066	0.494814	0.234349
135	S	0.900362	0.450237	0.024243
136	C	0.824549	0.412563	0.984791
137	H	0.756746	0.378863	0.236135
138	H	0.874924	0.437597	0.514085
139	H	0.93601	0.467956	0.490171
140	H	0.954846	0.477326	0.803431
141	H	0.009733	0.504604	0.705759
142	H	0.062863	0.531001	0.632654
143	H	0.124177	0.561472	0.649524
144	H	0.177971	0.588208	0.743601
145	H	0.222351	0.610254	0.304178
146	H	0.986734	0.493153	0.388188
147	H	0.83714	0.418822	0.850235
