data_C120H60N6O6S18_2023-05-13_09:59:57
#******************************************
#
# CIF file created by Zeo++
# Zeo++ is an open source package to
# analyze microporous materials
#
#*******************************************

_cell_length_a		65.7684   
_cell_length_b		66.0668   
_cell_length_c		7   
_cell_angle_alpha		90   
_cell_angle_beta		90   
_cell_angle_gamma		119.803   

_symmetry_space_group_name_H-M		'P1'
_symmetry_Int_Tables_number		1
_symmetry_cell_setting		Monoclinic

loop_
_symmetry_equiv_pos_as_xyz
'+x,+y,+z'

loop_
_atom_site_label
_atom_site_type_symbol
_atom_site_fract_x
_atom_site_fract_y
_atom_site_fract_z
1	C	0.356905	0.671603	0.999995
2	O	0.377571	0.675232	0.999991
3	C	0.338203	0.647348	0.999998
4	C	0.341811	0.629469	0
5	N	0.364943	0.63365	0
6	C	0.314304	0.643042	3e-06
7	O	0.297496	0.622137	5e-06
8	C	0.308583	0.661696	6e-06
9	C	0.28659	0.657194	5e-06
10	N	0.268391	0.633409	0
11	C	0.328184	0.685757	4e-06
12	O	0.32364	0.701888	7e-06
13	C	0.352469	0.691143	0.999999
14	C	0.369749	0.713094	0.999998
15	N	0.366302	0.732579	0
16	H	0.327495	0.612065	1e-06
17	H	0.281966	0.670555	8e-06
18	H	0.387207	0.716228	0.999997
19	C	0.643095	0.328397	0.999995
20	O	0.622429	0.324768	0.999991
21	C	0.661797	0.352652	0.999998
22	C	0.658189	0.370531	0
23	N	0.635057	0.36635	0
24	C	0.685696	0.356958	3e-06
25	O	0.702504	0.377863	5e-06
26	C	0.691417	0.338304	6e-06
27	C	0.71341	0.342806	5e-06
28	N	0.731609	0.366591	0
29	C	0.671816	0.314243	4e-06
30	O	0.67636	0.298112	7e-06
31	C	0.647531	0.308857	0.999999
32	C	0.630251	0.286906	0.999998
33	N	0.633698	0.267421	0
34	H	0.672505	0.387935	1e-06
35	H	0.718034	0.329445	8e-06
36	H	0.612793	0.283772	0.999997
37	C	0.620955	0.380304	0
38	C	0.621797	0.376379	0.19133
39	C	0.611973	0.387583	0.302089
40	C	0.604083	0.399409	0.189532
41	C	0.592253	0.413467	0.267291
42	C	0.588528	0.415344	0.458368
43	S	0.575102	0.431443	0.496753
44	C	0.574095	0.436314	0.256858
45	C	0.56437	0.450079	0.18198
46	C	0.57174	0.463956	0.020257
47	C	0.558137	0.474892	0.982755
48	C	0.540823	0.469511	0.116798
49	C	0.523455	0.477389	0.125404
50	C	0.515815	0.481765	0.299356
51	C	0.499663	0.489701	0.304027
52	C	0.490856	0.493697	0.134527
53	C	0.474971	0.502123	0.137022
54	C	0.466492	0.50656	0.967271
55	C	0.450387	0.515981	0.968594
56	C	0.431327	0.510291	0.851732
57	C	0.420436	0.523889	0.890623
58	C	0.43128	0.53973	0.037155
59	C	0.424887	0.556357	0.108812
60	C	0.413098	0.565541	0.00956
61	C	0.409454	0.581681	0.119624
62	C	0.396842	0.595212	0.046505
63	C	0.38756	0.592859	0.865338
64	C	0.377107	0.607113	0.838165
65	C	0.379045	0.619696	0
66	S	0.392945	0.614645	0.181687
67	C	0.418458	0.584192	0.301104
68	S	0.430979	0.567186	0.33722
69	S	0.454649	0.537777	0.12436
70	C	0.473834	0.501894	0.79316
71	C	0.48951	0.493383	0.78842
72	C	0.49829	0.489341	0.95803
73	C	0.514421	0.481203	0.955813
74	S	0.541086	0.450697	0.285282
75	C	0.584054	0.425736	0.151623
76	S	0.608646	0.396926	0.952061
77	H	0.629	0.366149	0.250336
78	H	0.610885	0.386792	0.456339
79	H	0.592859	0.408107	0.579581
80	H	0.586363	0.466379	0.932476
81	H	0.561216	0.486433	0.862571
82	H	0.522513	0.479361	0.434464
83	H	0.494213	0.492954	0.44201
84	H	0.469232	0.505298	0.274054
85	H	0.425397	0.496983	0.742261
86	H	0.405267	0.521976	0.813614
87	H	0.4076	0.561029	0.862647
88	H	0.388035	0.581492	0.755993
89	H	0.368768	0.607947	0.707114
90	H	0.418433	0.595153	0.416117
91	H	0.46774	0.505216	0.658547
92	H	0.494995	0.490167	0.650517
93	H	0.519958	0.477772	0.818855
94	H	0.585144	0.426592	0.99717
95	C	0.619277	0.239271	0
96	C	0.623209	0.244016	0.19133
97	C	0.612016	0.223097	0.302089
98	C	0.600191	0.203479	0.189532
99	C	0.586144	0.177723	0.267291
100	C	0.584277	0.172154	0.458368
101	S	0.56819	0.142779	0.496753
102	C	0.563311	0.136928	0.256858
103	C	0.549549	0.113554	0.18198
104	C	0.535607	0.107055	0.020257
105	C	0.524698	0.082647	0.982755
106	C	0.530161	0.070805	0.116798
107	C	0.522332	0.045704	0.125404
108	C	0.517976	0.033755	0.299356
109	C	0.510084	0.009803	0.304027
110	C	0.506112	0.997073	0.134527
111	C	0.497728	0.972899	0.137022
112	C	0.493313	0.960054	0.967271
113	C	0.483931	0.93467	0.968594
114	C	0.489712	0.921402	0.851732
115	C	0.476122	0.897037	0.890623
116	C	0.460198	0.892033	0.037155
117	C	0.443554	0.86912	0.108812
118	C	0.434393	0.848261	0.00956
119	C	0.418227	0.828563	0.119624
120	C	0.404711	0.802556	0.046505
121	C	0.407107	0.795678	0.865338
122	C	0.392858	0.771096	0.838165
123	C	0.380236	0.760488	0
124	S	0.385244	0.779329	0.181687
125	C	0.415674	0.835008	0.301104
126	S	0.432673	0.864387	0.33722
127	S	0.462063	0.917195	0.12436
128	C	0.497962	0.971997	0.79316
129	C	0.506432	0.996048	0.78842
130	C	0.51045	0.008797	0.95803
131	C	0.518544	0.032929	0.955813
132	S	0.549022	0.089806	0.285282
133	C	0.573877	0.157358	0.151623
134	S	0.602662	0.210485	0.952061
135	H	0.633437	0.261362	0.250336
136	H	0.612813	0.222804	0.456339
137	H	0.591515	0.183665	0.579581
138	H	0.53312	0.11917	0.932476
139	H	0.513115	0.074212	0.862571
140	H	0.520359	0.042804	0.434464
141	H	0.506844	0.001149	0.44201
142	H	0.494567	0.964034	0.274054
143	H	0.503078	0.928766	0.742261
144	H	0.478101	0.883873	0.813614
145	H	0.438939	0.847292	0.862647
146	H	0.418501	0.807472	0.755993
147	H	0.392055	0.76198	0.707114
148	H	0.404685	0.824066	0.416117
149	H	0.494655	0.962633	0.658547
150	H	0.509634	0.0047	0.650517
151	H	0.521962	0.041849	0.818855
152	H	0.573014	0.157589	0.99717
153	C	0.759404	0.380063	0
154	C	0.75463	0.379243	0.19133
155	C	0.775647	0.388958	0.302089
156	C	0.795362	0.39675	0.189532
157	C	0.821239	0.408448	0.267291
158	C	0.82683	0.412141	0.458368
159	S	0.856345	0.425416	0.496753
160	C	0.86223	0.426397	0.256858
161	C	0.885717	0.436005	0.18198
162	C	0.892289	0.428627	0.020257
163	C	0.916802	0.442099	0.982755
164	C	0.928652	0.459322	0.116798
165	C	0.953849	0.476546	0.125404
166	C	0.965845	0.484118	0.299356
167	C	0.98989	0.500135	0.304027
168	C	0.002668	0.508869	0.134527
169	C	0.026937	0.524617	0.137022
170	C	0.039832	0.533024	0.967271
171	C	0.065318	0.548987	0.968594
172	C	0.078597	0.567945	0.851732
173	C	0.103078	0.578712	0.890623
174	C	0.108158	0.567876	0.037155
175	C	0.131196	0.574161	0.108812
176	C	0.152144	0.585837	0.00956
177	C	0.171956	0.589394	0.119624
178	C	0.198084	0.60187	0.046505
179	C	0.204969	0.611101	0.865338
180	C	0.229671	0.62143	0.838165
181	C	0.240356	0.619454	0
182	S	0.221447	0.605664	0.181687
183	C	0.165505	0.580438	0.301104
184	S	0.135984	0.568065	0.33722
185	S	0.082925	0.544666	0.12436
186	C	0.02784	0.525747	0.79316
187	C	0.003694	0.510207	0.78842
188	C	0.990897	0.5015	0.95803
189	C	0.966671	0.485506	0.955813
190	S	0.909529	0.459135	0.285282
191	C	0.841705	0.416545	0.151623
192	S	0.788328	0.392227	0.952061
193	H	0.7372	0.372127	0.250336
194	H	0.775938	0.390042	0.456339
195	H	0.815262	0.407866	0.579581
196	H	0.880153	0.414089	0.932476
197	H	0.925305	0.438993	0.862571
198	H	0.956764	0.477474	0.434464
199	H	0.998579	0.505536	0.44201
200	H	0.035837	0.530306	0.274054
201	H	0.071162	0.57389	0.742261
202	H	0.116268	0.59379	0.813614
203	H	0.153098	0.591318	0.862647
204	H	0.193101	0.610674	0.755993
205	H	0.238813	0.629711	0.707114
206	H	0.176518	0.580419	0.416117
207	H	0.037242	0.531789	0.658547
208	H	0.995007	0.504771	0.650517
209	H	0.957715	0.480018	0.818855
210	H	0.841478	0.415458	0.99717
