data_C105H51N9O6S18_2023-05-15_12:01:59
#******************************************
#
# CIF file created by Zeo++
# Zeo++ is an open source package to
# analyze microporous materials
#
#*******************************************

_cell_length_a		62.4308   
_cell_length_b		62.7292   
_cell_length_c		7   
_cell_angle_alpha		90   
_cell_angle_beta		90   
_cell_angle_gamma		119.792   

_symmetry_space_group_name_H-M		'P1'
_symmetry_Int_Tables_number		1
_symmetry_cell_setting		Monoclinic

loop_
_symmetry_equiv_pos_as_xyz
'+x,+y,+z'

loop_
_atom_site_label
_atom_site_type_symbol
_atom_site_fract_x
_atom_site_fract_y
_atom_site_fract_z
1	C	0.358164	0.671865	0.999995
2	O	0.379934	0.675687	0.999991
3	C	0.338467	0.646322	0.999998
4	C	0.342272	0.627494	0
5	N	0.366641	0.631897	0
6	C	0.313292	0.641788	3e-06
7	O	0.29559	0.619773	5e-06
8	C	0.307261	0.661432	6e-06
9	C	0.284093	0.656692	5e-06
10	N	0.264927	0.631643	0
11	C	0.327905	0.686771	4e-06
12	O	0.323113	0.703758	7e-06
13	C	0.353487	0.692443	0.999999
14	C	0.371686	0.715559	0.999998
15	N	0.36805	0.736079	0
16	H	0.327195	0.609166	1e-06
17	H	0.279219	0.670762	8e-06
18	H	0.390076	0.71886	0.999997
19	C	0.641836	0.328135	0.999995
20	O	0.620066	0.324313	0.999991
21	C	0.661533	0.353678	0.999998
22	C	0.657728	0.372506	0
23	N	0.633359	0.368103	0
24	C	0.686708	0.358212	3e-06
25	O	0.70441	0.380227	5e-06
26	C	0.692739	0.338568	6e-06
27	C	0.715907	0.343308	5e-06
28	N	0.735073	0.368357	0
29	C	0.672095	0.313229	4e-06
30	O	0.676887	0.296242	7e-06
31	C	0.646513	0.307557	0.999999
32	C	0.628314	0.284441	0.999998
33	N	0.63195	0.263921	0
34	H	0.672805	0.390834	1e-06
35	H	0.720781	0.329238	8e-06
36	H	0.609924	0.28114	0.999997
37	C	0.618501	0.382798	0
38	C	0.608506	0.397594	0.966032
39	C	0.59231	0.395931	0.116983
40	C	0.577658	0.410385	0.124747
41	C	0.56206	0.408684	0.270232
42	C	0.55142	0.423931	0.237274
43	C	0.55913	0.436961	0.067663
44	C	0.552188	0.454061	0.988835
45	C	0.560878	0.468049	0.82447
46	C	0.549903	0.482935	0.789902
47	C	0.533035	0.480226	0.928874
48	C	0.517898	0.492071	0.941674
49	C	0.506843	0.495286	0.779997
50	N	0.492816	0.506265	0.778676
51	C	0.489251	0.514713	0.947242
52	C	0.473798	0.526346	0.931762
53	C	0.463198	0.529621	0.768851
54	C	0.449369	0.541695	0.804708
55	C	0.449443	0.547549	0.995228
56	C	0.437536	0.559878	0.083508
57	C	0.435022	0.563101	0.27631
58	C	0.422246	0.576295	0.312207
59	C	0.415291	0.582874	0.145771
60	C	0.40094	0.597612	0.13522
61	C	0.393829	0.605481	0.294854
62	S	0.378578	0.621	0.236257
63	C	0.381499	0.617202	0
64	C	0.393683	0.604507	0.962686
65	S	0.424122	0.57309	0.949384
66	S	0.466439	0.538059	0.126395
67	C	0.499589	0.512365	0.116568
68	C	0.514006	0.501007	0.113132
69	S	0.530645	0.459418	0.098041
70	S	0.579314	0.430223	0.951259
71	C	0.590908	0.379904	0.25809
72	S	0.608957	0.367061	0.208092
73	H	0.61254	0.408971	0.84001
74	H	0.558174	0.397202	0.395394
75	H	0.538653	0.425101	0.335733
76	H	0.574614	0.467843	0.731062
77	H	0.554471	0.495189	0.66867
78	H	0.508797	0.488765	0.640732
79	H	0.465364	0.523552	0.628778
80	H	0.439842	0.54574	0.693559
81	H	0.441951	0.556326	0.389111
82	H	0.418573	0.580534	0.454189
83	H	0.396669	0.603061	0.443802
84	H	0.397223	0.600381	0.819804
85	H	0.496851	0.519169	0.251515
86	H	0.522233	0.499482	0.245684
87	H	0.580295	0.374878	0.388776
88	C	0.616765	0.234276	0
89	C	0.601971	0.209616	0.966032
90	C	0.603706	0.195187	0.116983
91	C	0.589275	0.166241	0.124747
92	C	0.591045	0.152444	0.270232
93	C	0.575802	0.126693	0.237274
94	C	0.562705	0.121375	0.067663
95	C	0.545588	0.097452	0.988835
96	C	0.531526	0.092153	0.82447
97	C	0.516646	0.066429	0.789902
98	C	0.519432	0.052373	0.928874
99	C	0.507619	0.025545	0.941674
100	C	0.504441	0.011363	0.779997
101	N	0.493491	0.986499	0.778676
102	C	0.485036	0.974546	0.947242
103	C	0.473436	0.947615	0.931762
104	C	0.470197	0.933825	0.768851
105	C	0.458148	0.908067	0.804708
106	C	0.452278	0.902311	0.995228
107	C	0.439966	0.878208	0.083508
108	C	0.436745	0.872502	0.27631
109	C	0.423568	0.846674	0.312207
110	C	0.417001	0.833215	0.145771
111	C	0.402284	0.804286	0.13522
112	C	0.394423	0.789387	0.294854
113	S	0.378926	0.758787	0.236257
114	C	0.382722	0.76547	0
115	C	0.3954	0.790212	0.962686
116	S	0.426775	0.85173	0.949384
117	S	0.461723	0.928642	0.126395
118	C	0.487347	0.987151	0.116568
119	C	0.498675	0.01278	0.113132
120	S	0.540307	0.070722	0.098041
121	S	0.569377	0.148131	0.951259
122	C	0.619782	0.209754	0.25809
123	S	0.632584	0.24047	0.208092
124	H	0.590546	0.202293	0.84001
125	H	0.602575	0.160019	0.395394
126	H	0.574682	0.112848	0.335733
127	H	0.531675	0.106	0.731062
128	H	0.50434	0.058763	0.66867
129	H	0.510972	0.019798	0.640732
130	H	0.476273	0.94202	0.628778
131	H	0.454132	0.894577	0.693559
132	H	0.443509	0.88613	0.389111
133	H	0.419333	0.838805	0.454189
134	H	0.396837	0.794617	0.443802
135	H	0.399522	0.797837	0.819804
136	H	0.480536	0.977657	0.251515
137	H	0.50017	0.022469	0.245684
138	H	0.624866	0.204219	0.388776
139	C	0.764351	0.382544	0
140	C	0.78914	0.392409	0.966032
141	C	0.8036	0.408501	0.116983
142	C	0.832684	0.422993	0.124747
143	C	0.846511	0.438491	0.270232
144	C	0.872394	0.448995	0.237274
145	C	0.877781	0.441283	0.067663
146	C	0.90184	0.448106	0.988835
147	C	0.907213	0.439417	0.82447
148	C	0.933068	0.450255	0.789902
149	C	0.94715	0.46702	0.928874
150	C	0.9741	0.482004	0.941674
151	C	0.988332	0.492969	0.779997
152	N	0.013309	0.506854	0.778676
153	C	0.02533	0.51036	0.947242
154	C	0.052382	0.525659	0.931762
155	C	0.066222	0.536173	0.768851
156	C	0.0921	0.549856	0.804708
157	C	0.097896	0.549759	0.995228
158	C	0.122115	0.561533	0.083508
159	C	0.12785	0.564016	0.27631
160	C	0.153802	0.57665	0.312207
161	C	0.167325	0.58353	0.145771
162	C	0.196393	0.597721	0.13522
163	C	0.211365	0.604751	0.294854
164	S	0.242112	0.619833	0.236257
165	C	0.235395	0.616948	0
166	C	0.210534	0.6049	0.962686
167	S	0.14872	0.5748	0.949384
168	S	0.071455	0.532919	0.126395
169	C	0.012681	0.500103	0.116568
170	C	0.986936	0.485831	0.113132
171	S	0.928665	0.46948	0.098041
172	S	0.850926	0.421266	0.951259
173	C	0.788927	0.409961	0.25809
174	S	0.758075	0.392089	0.208092
175	H	0.796531	0.388355	0.84001
176	H	0.838868	0.442399	0.395394
177	H	0.886282	0.46167	0.335733
178	H	0.893328	0.425776	0.731062
179	H	0.940806	0.445667	0.66867
180	H	0.979848	0.491056	0.640732
181	H	0.05798	0.534047	0.628778
182	H	0.105643	0.559302	0.693559
183	H	0.114157	0.557163	0.389111
184	H	0.16171	0.58028	0.454189
185	H	0.206111	0.601941	0.443802
186	H	0.202871	0.601402	0.819804
187	H	0.022229	0.502793	0.251515
188	H	0.977215	0.477667	0.245684
189	H	0.794456	0.420522	0.388776
