data_C114H54N6O6S24_2023-05-12_03:44:29
#******************************************
#
# CIF file created by Zeo++
# Zeo++ is an open source package to
# analyze microporous materials
#
#*******************************************

_cell_length_a		65.8462   
_cell_length_b		66.1446   
_cell_length_c		7   
_cell_angle_alpha		90   
_cell_angle_beta		90   
_cell_angle_gamma		119.803   

_symmetry_space_group_name_H-M		'P1'
_symmetry_Int_Tables_number		1
_symmetry_cell_setting		Monoclinic

loop_
_symmetry_equiv_pos_as_xyz
'+x,+y,+z'

loop_
_atom_site_label
_atom_site_type_symbol
_atom_site_fract_x
_atom_site_fract_y
_atom_site_fract_z
1	C	0.356878	0.671597	0.999995
2	O	0.377518	0.675222	0.999991
3	C	0.338197	0.64737	0.999998
4	C	0.341801	0.629513	0
5	N	0.364906	0.633689	0
6	C	0.314326	0.64307	3e-06
7	O	0.297539	0.622189	5e-06
8	C	0.308612	0.661702	6e-06
9	C	0.286645	0.657206	5e-06
10	N	0.268468	0.633448	0
11	C	0.328191	0.685735	4e-06
12	O	0.323651	0.701847	7e-06
13	C	0.352447	0.691115	0.999999
14	C	0.369706	0.713039	0.999998
15	N	0.366263	0.732502	0
16	H	0.327501	0.612129	1e-06
17	H	0.282026	0.670551	8e-06
18	H	0.387144	0.71617	0.999997
19	C	0.643122	0.328403	0.999995
20	O	0.622482	0.324778	0.999991
21	C	0.661803	0.35263	0.999998
22	C	0.658199	0.370487	0
23	N	0.635094	0.366311	0
24	C	0.685674	0.35693	3e-06
25	O	0.702461	0.377811	5e-06
26	C	0.691388	0.338298	6e-06
27	C	0.713355	0.342794	5e-06
28	N	0.731532	0.366552	0
29	C	0.671809	0.314265	4e-06
30	O	0.676349	0.298153	7e-06
31	C	0.647553	0.308885	0.999999
32	C	0.630294	0.286961	0.999998
33	N	0.633737	0.267498	0
34	H	0.672499	0.387871	1e-06
35	H	0.717974	0.329449	8e-06
36	H	0.612856	0.28383	0.999997
37	C	0.621009	0.380249	0
38	C	0.612109	0.390454	0.118695
39	C	0.600524	0.400282	0.013025
40	C	0.588326	0.413369	0.103365
41	C	0.577216	0.422856	0.000918
42	C	0.567924	0.4337	0.12191
43	C	0.572224	0.432053	0.312361
44	C	0.56419	0.442325	0.480637
45	C	0.568612	0.440405	0.66993
46	S	0.557705	0.453233	0.817981
47	C	0.546823	0.461799	0.630541
48	C	0.534638	0.474729	0.661171
49	C	0.526495	0.478635	0.831337
50	C	0.515395	0.492324	0.808375
51	C	0.51517	0.498801	0.620883
52	C	0.505554	0.512701	0.545217
53	C	0.505795	0.51963	0.358411
54	C	0.494693	0.533315	0.335651
55	C	0.486161	0.5368	0.505395
56	C	0.473949	0.549764	0.530828
57	C	0.462137	0.554722	0.391257
58	C	0.452149	0.568174	0.460429
59	C	0.437719	0.57659	0.336916
60	C	0.432977	0.571876	0.145157
61	C	0.419638	0.581726	0.069935
62	C	0.414642	0.593574	0.207006
63	C	0.400214	0.606337	0.168173
64	C	0.39539	0.618067	0.308112
65	S	0.379407	0.630124	0.221949
66	C	0.378991	0.619751	0
67	C	0.390573	0.607349	0.987786
68	S	0.426033	0.59271	0.423962
69	C	0.456677	0.573108	0.651849
70	S	0.472744	0.561681	0.745688
71	S	0.491659	0.523083	0.689259
72	S	0.528473	0.487854	0.476047
73	C	0.551626	0.454636	0.458604
74	S	0.587348	0.417513	0.343222
75	C	0.601255	0.396975	0.818946
76	S	0.615787	0.382177	0.76577
77	H	0.613802	0.390882	0.272708
78	H	0.575655	0.422281	0.84683
79	H	0.558605	0.442192	0.069056
80	H	0.577707	0.432099	0.730751
81	H	0.528256	0.472038	0.968356
82	H	0.508007	0.497107	0.926557
83	H	0.513618	0.515254	0.240943
84	H	0.493336	0.54038	0.199762
85	H	0.460652	0.548782	0.245219
86	H	0.438649	0.561904	0.060409
87	H	0.414151	0.58	0.922258
88	H	0.400339	0.620302	0.457209
89	H	0.392056	0.599477	0.856863
90	H	0.451446	0.582889	0.743337
91	H	0.546302	0.458094	0.321842
92	H	0.594093	0.402387	0.703847
93	C	0.619333	0.239381	0
94	C	0.609137	0.220374	0.118695
95	C	0.59933	0.199075	0.013025
96	C	0.586259	0.173922	0.103365
97	C	0.576791	0.153433	0.000918
98	C	0.565957	0.133401	0.12191
99	C	0.567591	0.139313	0.312361
100	C	0.557325	0.1211	0.480637
101	C	0.559232	0.127406	0.66993
102	S	0.546414	0.103792	0.817981
103	C	0.53787	0.084449	0.630541
104	C	0.524955	0.059465	0.661171
105	C	0.521071	0.047483	0.831337
106	C	0.507391	0.02282	0.808375
107	C	0.500899	0.016146	0.620883
108	C	0.487002	0.992748	0.545217
109	C	0.480054	0.986085	0.358411
110	C	0.466378	0.961424	0.335651
111	C	0.462918	0.949476	0.505395
112	C	0.44997	0.924431	0.530828
113	C	0.445046	0.907757	0.391257
114	C	0.431599	0.884435	0.460429
115	C	0.423218	0.861715	0.336916
116	C	0.427963	0.861699	0.145157
117	C	0.418142	0.838637	0.069935
118	C	0.406283	0.821872	0.207006
119	C	0.393545	0.794825	0.168173
120	C	0.381804	0.778348	0.308112
121	S	0.369779	0.750459	0.221949
122	C	0.380181	0.760378	0
123	C	0.392568	0.784237	0.987786
124	S	0.407104	0.834049	0.423962
125	C	0.426634	0.884019	0.651849
126	S	0.438027	0.911363	0.745688
127	S	0.476648	0.968601	0.689259
128	S	0.511821	0.040266	0.476047
129	C	0.545032	0.096356	0.458604
130	S	0.582108	0.168821	0.343222
131	C	0.602643	0.203095	0.818946
132	S	0.617421	0.232273	0.76577
133	H	0.608702	0.221631	0.272708
134	H	0.577374	0.152456	0.84683
135	H	0.55748	0.115684	0.069056
136	H	0.567523	0.144715	0.730751
137	H	0.527678	0.055804	0.968356
138	H	0.502626	0.010716	0.926557
139	H	0.48441	0.998216	0.240943
140	H	0.4593	0.953039	0.199762
141	H	0.451007	0.912199	0.245219
142	H	0.437938	0.877267	0.060409
143	H	0.419894	0.834904	0.922258
144	H	0.379544	0.781039	0.457209
145	H	0.400455	0.793553	0.856863
146	H	0.416849	0.869079	0.743337
147	H	0.541586	0.087622	0.321842
148	H	0.597246	0.19059	0.703847
149	C	0.759294	0.380008	0
150	C	0.77839	0.388811	0.118695
151	C	0.799782	0.400281	0.013025
152	C	0.825052	0.412348	0.103365
153	C	0.84563	0.423349	0.000918
154	C	0.865756	0.432538	0.12191
155	C	0.859822	0.428273	0.312361
156	C	0.878123	0.436214	0.480637
157	C	0.871793	0.431828	0.66993
158	S	0.895517	0.442613	0.817981
159	C	0.914944	0.453391	0.630541
160	C	0.940043	0.465446	0.661171
161	C	0.952071	0.47352	0.831337
162	C	0.97685	0.484494	0.808375
163	C	0.983568	0.484692	0.620883
164	C	0.007081	0.494191	0.545217
165	C	0.013787	0.493924	0.358411
166	C	0.038566	0.5049	0.335651
167	C	0.050558	0.513363	0.505395
168	C	0.075718	0.525444	0.530828
169	C	0.092454	0.53716	0.391257
170	C	0.115888	0.54703	0.460429
171	C	0.1387	0.561333	0.336916
172	C	0.138697	0.566063	0.145157
173	C	0.161857	0.579276	0.069935
174	C	0.178712	0.584193	0.207006
175	C	0.205878	0.598477	0.168173
176	C	0.222443	0.603224	0.308112
177	S	0.25045	0.619055	0.221949
178	C	0.240465	0.61951	0
179	C	0.216496	0.608052	0.987786
180	S	0.1665	0.572879	0.423962
181	C	0.116326	0.542512	0.651849
182	S	0.088866	0.526594	0.745688
183	S	0.03133	0.507955	0.689259
184	S	0.959342	0.471519	0.476047
185	C	0.902979	0.448647	0.458604
186	S	0.830181	0.413304	0.343222
187	C	0.795739	0.399568	0.818946
188	S	0.766429	0.385189	0.76577
189	H	0.777132	0.387126	0.272708
190	H	0.846608	0.424902	0.84683
191	H	0.883552	0.441763	0.069056
192	H	0.854407	0.422824	0.730751
193	H	0.943703	0.471797	0.968356
194	H	0.989004	0.491816	0.926557
195	H	0.001609	0.486169	0.240943
196	H	0.047	0.50622	0.199762
197	H	0.087977	0.538659	0.245219
198	H	0.123049	0.560467	0.060409
199	H	0.165592	0.584735	0.922258
200	H	0.219754	0.598298	0.457209
201	H	0.207126	0.60661	0.856863
202	H	0.131342	0.54767	0.743337
203	H	0.911748	0.453923	0.321842
204	H	0.808298	0.406662	0.703847
