data_C102H48N12O6S12_2023-05-13_03:38:17
#******************************************
#
# CIF file created by Zeo++
# Zeo++ is an open source package to
# analyze microporous materials
#
#*******************************************

_cell_length_a		43.1506   
_cell_length_b		43.4491   
_cell_length_c		7   
_cell_angle_alpha		90   
_cell_angle_beta		90   
_cell_angle_gamma		119.7   

_symmetry_space_group_name_H-M		'P1'
_symmetry_Int_Tables_number		1
_symmetry_cell_setting		Monoclinic

loop_
_symmetry_equiv_pos_as_xyz
'+x,+y,+z'

loop_
_atom_site_label
_atom_site_type_symbol
_atom_site_fract_x
_atom_site_fract_y
_atom_site_fract_z
1	C	0.369245	0.674164	0.999995
2	O	0.400731	0.679678	0.999991
3	C	0.340816	0.637321	0.999998
4	C	0.346372	0.610164	0
5	N	0.381616	0.616515	0
6	C	0.304404	0.630781	3e-06
7	O	0.278853	0.599026	5e-06
8	C	0.295626	0.659116	6e-06
9	C	0.262118	0.652278	5e-06
10	N	0.234456	0.616148	0
11	C	0.325425	0.695665	4e-06
12	O	0.318447	0.720168	7e-06
13	C	0.362422	0.703847	0.999999
14	C	0.38869	0.73719	0.999998
15	N	0.383374	0.766788	0
16	H	0.324607	0.583727	1e-06
17	H	0.255028	0.672574	8e-06
18	H	0.415289	0.741951	0.999997
19	C	0.630755	0.325836	0.999995
20	O	0.599269	0.320322	0.999991
21	C	0.659184	0.362679	0.999998
22	C	0.653628	0.389836	0
23	N	0.618384	0.383485	0
24	C	0.695596	0.369219	3e-06
25	O	0.721147	0.400974	5e-06
26	C	0.704374	0.340884	6e-06
27	C	0.737882	0.347722	5e-06
28	N	0.765544	0.383852	0
29	C	0.674575	0.304335	4e-06
30	O	0.681553	0.279832	7e-06
31	C	0.637578	0.296153	0.999999
32	C	0.61131	0.26281	0.999998
33	N	0.616626	0.233212	0
34	H	0.675393	0.416273	1e-06
35	H	0.744972	0.327426	8e-06
36	H	0.584711	0.258049	0.999997
37	C	0.596847	0.404682	0
38	C	0.578122	0.372227	0.086159
39	S	0.560695	0.375437	0.299558
40	C	0.578354	0.420593	0.277126
41	C	0.573813	0.442088	0.420743
42	C	0.594323	0.478475	0.441663
43	C	0.582911	0.491859	0.596221
44	C	0.553839	0.465333	0.689755
45	C	0.534447	0.468167	0.854528
46	C	0.505467	0.474749	0.834609
47	C	0.492883	0.478578	0.655953
48	C	0.464401	0.48487	0.643034
49	C	0.447427	0.487634	0.808265
50	C	0.418201	0.494053	0.801761
51	C	0.403079	0.497762	0.621478
52	C	0.37715	0.471676	0.50926
53	C	0.369316	0.485883	0.344323
54	C	0.389458	0.522468	0.333585
55	C	0.388638	0.545617	0.18685
56	C	0.412451	0.581362	0.159036
57	C	0.403153	0.595318	0
58	C	0.372826	0.570737	0.908657
59	S	0.355303	0.530268	0.016815
60	S	0.417738	0.538931	0.526818
61	C	0.402503	0.496496	0.970849
62	C	0.41624	0.492635	0.140279
63	N	0.443875	0.486546	0.150929
64	C	0.459811	0.483936	0.989407
65	C	0.488705	0.477491	0.00253
66	N	0.500418	0.473941	0.176615
67	C	0.527913	0.467697	0.190976
68	C	0.545681	0.464648	0.035831
69	S	0.54082	0.42476	0.591278
70	C	0.597209	0.432508	0.10747
71	H	0.573696	0.346842	0.035604
72	H	0.616807	0.495161	0.350879
73	H	0.595466	0.519557	0.636419
74	H	0.505061	0.476609	0.523723
75	H	0.455683	0.48763	0.501321
76	H	0.364337	0.443695	0.543237
77	H	0.349665	0.469566	0.238514
78	H	0.435541	0.596787	0.248693
79	H	0.359987	0.574332	0.784654
80	H	0.380115	0.501299	0.970568
81	H	0.405202	0.494316	0.276726
82	H	0.53538	0.465178	0.335864
83	H	0.567713	0.459623	0.055684
84	H	0.610476	0.45996	0.062502
85	C	0.594734	0.190453	0
86	C	0.627428	0.204172	0.086159
87	S	0.624311	0.183726	0.299558
88	C	0.578873	0.156328	0.277126
89	C	0.557321	0.130465	0.420743
90	C	0.520668	0.114606	0.441663
91	C	0.507301	0.090003	0.596221
92	C	0.534106	0.087584	0.689755
93	C	0.531378	0.065566	0.854528
94	C	0.524945	0.030329	0.834609
95	C	0.521177	0.014063	0.655953
96	C	0.515033	0.979608	0.643034
97	C	0.51236	0.960053	0.808265
98	C	0.506092	0.924735	0.801761
99	C	0.50246	0.906076	0.621478
100	C	0.528804	0.906331	0.50926
101	C	0.514589	0.884453	0.344323
102	C	0.477739	0.868031	0.333585
103	C	0.454506	0.84421	0.18685
104	C	0.418478	0.832259	0.159036
105	C	0.404523	0.809181	0
106	C	0.429383	0.803585	0.908657
107	S	0.470115	0.82646	0.016815
108	S	0.461042	0.87967	0.526818
109	C	0.503734	0.906764	0.970849
110	C	0.507527	0.924203	0.140279
111	N	0.513473	0.957617	0.150929
112	C	0.515997	0.975991	0.989407
113	C	0.522293	0.011007	0.00253
114	N	0.525786	0.026133	0.176615
115	C	0.531889	0.059563	0.190976
116	C	0.534842	0.080187	0.035831
117	S	0.574916	0.115022	0.591278
118	C	0.566797	0.163153	0.10747
119	H	0.652939	0.225022	0.035604
120	H	0.503782	0.120283	0.350879
121	H	0.47942	0.074904	0.636419
122	H	0.52308	0.028078	0.523723
123	H	0.512314	0.968232	0.501321
124	H	0.556971	0.921456	0.543237
125	H	0.531088	0.881214	0.238514
126	H	0.402853	0.83979	0.248693
127	H	0.425851	0.7873	0.784654
128	H	0.499047	0.879822	0.970568
129	H	0.505906	0.911603	0.276726
130	H	0.534373	0.069461	0.335864
131	H	0.539754	0.106996	0.055684
132	H	0.539159	0.149004	0.062502
133	C	0.807865	0.404316	0
134	C	0.793896	0.423052	0.086159
135	S	0.81444	0.440288	0.299558
136	C	0.842219	0.42253	0.277126
137	C	0.868312	0.426898	0.420743
138	C	0.884455	0.40637	0.441663
139	C	0.909233	0.417588	0.596221
140	C	0.911501	0.446534	0.689755
141	C	0.933621	0.465718	0.854528
142	C	0.969034	0.494372	0.834609
143	C	0.985386	0.50681	0.655953
144	C	0.020012	0.534973	0.643034
145	C	0.039659	0.551764	0.808265
146	C	0.075153	0.580663	0.801761
147	C	0.093907	0.595613	0.621478
148	C	0.093492	0.621444	0.50926
149	C	0.115541	0.629115	0.344323
150	C	0.132249	0.608951	0.333585
151	C	0.156303	0.609624	0.18685
152	C	0.168518	0.58583	0.159036
153	C	0.191769	0.594951	0
154	C	0.197237	0.625129	0.908657
155	S	0.174027	0.642722	0.016815
156	S	0.120666	0.58085	0.526818
157	C	0.093208	0.596191	0.970849
158	C	0.075679	0.582613	0.140279
159	N	0.042098	0.555287	0.150929
160	C	0.023637	0.539523	0.989407
161	C	0.988448	0.510953	0.00253
162	N	0.973242	0.499377	0.176615
163	C	0.939644	0.472191	0.190976
164	C	0.918922	0.454616	0.035831
165	S	0.88371	0.459669	0.591278
166	C	0.83544	0.40379	0.10747
167	H	0.772811	0.427587	0.035604
168	H	0.878857	0.384006	0.350879
169	H	0.92456	0.40499	0.636419
170	H	0.971305	0.494764	0.523723
171	H	0.031449	0.543589	0.501321
172	H	0.078138	0.6343	0.543237
173	H	0.118693	0.648671	0.238514
174	H	0.161052	0.562874	0.248693
175	H	0.213608	0.637819	0.784654
176	H	0.120283	0.618329	0.970568
177	H	0.088337	0.593532	0.276726
178	H	0.929693	0.464812	0.335864
179	H	0.891979	0.432832	0.055684
180	H	0.849811	0.390487	0.062502
