data_C129H66N6O6S24_2023-05-12_16:38:08
#******************************************
#
# CIF file created by Zeo++
# Zeo++ is an open source package to
# analyze microporous materials
#
#*******************************************

_cell_length_a		70.1299   
_cell_length_b		70.4283   
_cell_length_c		7   
_cell_angle_alpha		90   
_cell_angle_beta		90   
_cell_angle_gamma		119.815   

_symmetry_space_group_name_H-M		'P1'
_symmetry_Int_Tables_number		1
_symmetry_cell_setting		Monoclinic

loop_
_symmetry_equiv_pos_as_xyz
'+x,+y,+z'

loop_
_atom_site_label
_atom_site_type_symbol
_atom_site_fract_x
_atom_site_fract_y
_atom_site_fract_z
1	C	0.355441	0.671297	0.999995
2	O	0.374821	0.674703	0.999991
3	C	0.337895	0.648542	0.999998
4	C	0.341275	0.631769	0
5	N	0.36297	0.635691	0
6	C	0.315482	0.644503	3e-06
7	O	0.299715	0.62489	5e-06
8	C	0.310121	0.662003	6e-06
9	C	0.289495	0.65778	5e-06
10	N	0.272422	0.635465	0
11	C	0.328509	0.684577	4e-06
12	O	0.324251	0.699711	7e-06
13	C	0.351285	0.68963	0.999999
14	C	0.367495	0.710224	0.999998
15	N	0.364267	0.728505	0
16	H	0.327845	0.61544	1e-06
17	H	0.285161	0.670315	8e-06
18	H	0.383868	0.713165	0.999997
19	C	0.644559	0.328703	0.999995
20	O	0.625179	0.325297	0.999991
21	C	0.662105	0.351458	0.999998
22	C	0.658725	0.368231	0
23	N	0.63703	0.364309	0
24	C	0.684518	0.355497	3e-06
25	O	0.700285	0.37511	5e-06
26	C	0.689879	0.337997	6e-06
27	C	0.710505	0.34222	5e-06
28	N	0.727578	0.364535	0
29	C	0.671491	0.315423	4e-06
30	O	0.675749	0.300289	7e-06
31	C	0.648715	0.31037	0.999999
32	C	0.632505	0.289776	0.999998
33	N	0.635733	0.271495	0
34	H	0.672155	0.38456	1e-06
35	H	0.714839	0.329685	8e-06
36	H	0.616132	0.286835	0.999997
37	C	0.623809	0.377401	0
38	C	0.629237	0.365145	0.115957
39	S	0.621403	0.36545	0.346504
40	C	0.610645	0.382133	0.291397
41	C	0.600639	0.389125	0.436171
42	C	0.596829	0.383037	0.626306
43	C	0.586634	0.393216	0.727594
44	C	0.582689	0.406942	0.613884
45	C	0.572736	0.419756	0.673286
46	C	0.570617	0.425268	0.858484
47	C	0.559845	0.437905	0.869411
48	C	0.553769	0.441889	0.692479
49	C	0.542572	0.454015	0.649099
50	C	0.537638	0.459057	0.471789
51	C	0.526413	0.47124	0.482971
52	C	0.522733	0.475537	0.66845
53	C	0.511979	0.487233	0.729329
54	C	0.509097	0.490949	0.912684
55	C	0.497206	0.503673	0.924507
56	C	0.493547	0.506843	0.716924
57	C	0.483003	0.51778	0.634701
58	C	0.479369	0.520757	0.445551
59	C	0.468086	0.532783	0.422678
60	C	0.463125	0.538983	0.59455
61	C	0.451861	0.551297	0.625817
62	C	0.446906	0.557533	0.797616
63	C	0.435632	0.569575	0.774343
64	C	0.432066	0.572486	0.584965
65	C	0.421128	0.583961	0.513379
66	C	0.412018	0.593897	0.621386
67	C	0.402457	0.603834	0.507909
68	C	0.404403	0.601462	0.314087
69	C	0.396312	0.609466	0.16139
70	C	0.380081	0.615173	0.176026
71	C	0.376191	0.622599	0
72	C	0.389236	0.622601	0.854387
73	S	0.406415	0.613509	0.931549
74	S	0.417761	0.587012	0.274477
75	S	0.442594	0.560342	0.43915
76	S	0.472381	0.529908	0.781041
77	C	0.502284	0.497161	0.610228
78	S	0.533358	0.464342	0.825773
79	S	0.561409	0.430057	0.516067
80	S	0.591644	0.407226	0.385345
81	C	0.613207	0.387178	0.098173
82	H	0.637356	0.356044	0.077907
83	H	0.601051	0.371708	0.692471
84	H	0.582333	0.390321	0.877544
85	H	0.5766	0.420642	0.982618
86	H	0.556827	0.443741	0.002933
87	H	0.541809	0.454332	0.337719
88	H	0.521264	0.476607	0.358081
89	H	0.514293	0.485846	0.038321
90	H	0.50738	0.519354	0.996398
91	H	0.481618	0.494287	0.000769
92	H	0.484528	0.514616	0.326109
93	H	0.463909	0.536596	0.284345
94	H	0.451091	0.553741	0.935996
95	H	0.430477	0.575751	0.893527
96	H	0.412082	0.594179	0.776051
97	H	0.39465	0.61244	0.567872
98	H	0.371339	0.613918	0.30719
99	H	0.389636	0.627434	0.70718
100	H	0.502428	0.496471	0.456246
101	H	0.607688	0.397421	0.030267
102	C	0.622203	0.245085	0
103	C	0.634468	0.26269	0.115957
104	S	0.634191	0.2546	0.346504
105	C	0.617509	0.227287	0.291397
106	C	0.610537	0.210376	0.436171
107	C	0.616654	0.212654	0.626306
108	C	0.606489	0.192381	0.727594
109	C	0.592745	0.174784	0.613884
110	C	0.579936	0.152125	0.673286
111	C	0.574419	0.144528	0.858484
112	C	0.561793	0.121232	0.869411
113	C	0.557821	0.111224	0.692479
114	C	0.545708	0.088014	0.649099
115	C	0.540673	0.078087	0.471789
116	C	0.528502	0.054792	0.482971
117	C	0.524209	0.046854	0.66845
118	C	0.512525	0.024513	0.729329
119	C	0.508811	0.017946	0.912684
120	C	0.4961	0.99345	0.924507
121	C	0.492937	0.986656	0.716924
122	C	0.482013	0.96528	0.634701
123	C	0.479042	0.958702	0.445551
124	C	0.467029	0.935506	0.422678
125	C	0.460833	0.924399	0.59455
126	C	0.448531	0.900935	0.625817
127	C	0.442299	0.889797	0.797616
128	C	0.43027	0.866594	0.774343
129	C	0.427365	0.86015	0.584965
130	C	0.415904	0.837847	0.513379
131	C	0.405978	0.818893	0.621386
132	C	0.396053	0.799491	0.507909
133	C	0.398423	0.803787	0.314087
134	C	0.39043	0.787771	0.16139
135	C	0.38477	0.765953	0.176026
136	C	0.377341	0.754689	0
137	C	0.37729	0.767653	0.854387
138	S	0.386339	0.793784	0.931549
139	S	0.412858	0.83146	0.274477
140	S	0.4395	0.882714	0.43915
141	S	0.469895	0.942639	0.781041
142	C	0.502609	0.004986	0.610228
143	S	0.535391	0.068568	0.825773
144	S	0.569653	0.130604	0.516067
145	S	0.592426	0.183401	0.385345
146	C	0.612442	0.224807	0.098173
147	H	0.643561	0.279827	0.077907
148	H	0.627995	0.228138	0.692471
149	H	0.609406	0.190989	0.877544
150	H	0.579034	0.155083	0.982618
151	H	0.555954	0.112418	0.002933
152	H	0.545393	0.08694	0.337719
153	H	0.523142	0.044327	0.358081
154	H	0.513906	0.028195	0.038321
155	H	0.480344	0.987941	0.996398
156	H	0.505567	0.987308	0.000769
157	H	0.485178	0.969948	0.326109
158	H	0.463223	0.927556	0.284345
159	H	0.446084	0.897734	0.935996
160	H	0.424098	0.855318	0.893527
161	H	0.405695	0.818676	0.776051
162	H	0.387456	0.783157	0.567872
163	H	0.38606	0.758515	0.30719
164	H	0.372444	0.763235	0.70718
165	H	0.5033	0.005816	0.456246
166	H	0.602195	0.209117	0.030267
167	C	0.753647	0.377175	0
168	C	0.735955	0.371825	0.115957
169	S	0.744065	0.37961	0.346504
170	C	0.771505	0.390241	0.291397
171	C	0.788482	0.400159	0.436171
172	C	0.786176	0.40397	0.626306
173	C	0.806536	0.414064	0.727594
174	C	0.824226	0.417935	0.613884
175	C	0.846987	0.427779	0.673286
176	C	0.854622	0.429864	0.858484
177	C	0.878021	0.440524	0.869411
178	C	0.888068	0.446548	0.692479
179	C	0.911379	0.457632	0.649099
180	C	0.921348	0.462518	0.471789
181	C	0.944744	0.473629	0.482971
182	C	0.952717	0.47727	0.66845
183	C	0.975155	0.487915	0.729329
184	C	0.981751	0.490766	0.912684
185	C	0.006353	0.502537	0.924507
186	C	0.013175	0.506162	0.716924
187	C	0.034643	0.516602	0.634701
188	C	0.041248	0.520202	0.445551
189	C	0.064544	0.531372	0.422678
190	C	0.075701	0.536279	0.59455
191	C	0.099266	0.547428	0.625817
192	C	0.110454	0.55233	0.797616
193	C	0.133757	0.563491	0.774343
194	C	0.140227	0.567024	0.584965
195	C	0.162626	0.577853	0.513379
196	C	0.181663	0.586871	0.621386
197	C	0.201148	0.596336	0.507909
198	C	0.196833	0.594411	0.314087
199	C	0.212917	0.602424	0.16139
200	C	0.234808	0.618534	0.176026
201	C	0.246127	0.622373	0
202	C	0.233132	0.609407	0.854387
203	S	0.206905	0.592367	0.931549
204	S	0.16904	0.581188	0.274477
205	S	0.117565	0.556606	0.43915
206	S	0.057383	0.527113	0.781041
207	C	0.994765	0.497514	0.610228
208	S	0.93091	0.466751	0.825773
209	S	0.868597	0.438999	0.516067
210	S	0.815589	0.409033	0.385345
211	C	0.77401	0.387676	0.098173
212	H	0.718742	0.36379	0.077907
213	H	0.770613	0.399815	0.692471
214	H	0.80792	0.41835	0.877544
215	H	0.844025	0.423936	0.982618
216	H	0.886878	0.443502	0.002933
217	H	0.912456	0.458389	0.337719
218	H	0.955254	0.478727	0.358081
219	H	0.971459	0.48562	0.038321
220	H	0.011934	0.492366	0.996398
221	H	0.012474	0.518065	0.000769
222	H	0.029952	0.515097	0.326109
223	H	0.072527	0.535509	0.284345
224	H	0.102484	0.548185	0.935996
225	H	0.145084	0.568592	0.893527
226	H	0.181881	0.586806	0.776051
227	H	0.217553	0.604064	0.567872
228	H	0.242259	0.627227	0.30719
229	H	0.237579	0.608992	0.70718
230	H	0.993931	0.497374	0.456246
231	H	0.789776	0.393123	0.030267
