data_C102H48N6O6S21_2023-05-12_03:54:40
#******************************************
#
# CIF file created by Zeo++
# Zeo++ is an open source package to
# analyze microporous materials
#
#*******************************************

_cell_length_a		53.7826   
_cell_length_b		54.0811   
_cell_length_c		7   
_cell_angle_alpha		90   
_cell_angle_beta		90   
_cell_angle_gamma		119.759   

_symmetry_space_group_name_H-M		'P1'
_symmetry_Int_Tables_number		1
_symmetry_cell_setting		Monoclinic

loop_
_symmetry_equiv_pos_as_xyz
'+x,+y,+z'

loop_
_atom_site_label
_atom_site_type_symbol
_atom_site_fract_x
_atom_site_fract_y
_atom_site_fract_z
1	C	0.362153	0.672694	0.999995
2	O	0.38742	0.677126	0.999991
3	C	0.339309	0.643076	0.999998
4	C	0.34374	0.621245	0
5	N	0.372023	0.626351	0
6	C	0.310088	0.637819	3e-06
7	O	0.289558	0.612292	5e-06
8	C	0.303073	0.660597	6e-06
9	C	0.276183	0.6551	5e-06
10	N	0.253954	0.626056	0
11	C	0.327016	0.689978	4e-06
12	O	0.321441	0.709675	7e-06
13	C	0.356707	0.696555	0.999999
14	C	0.377814	0.723359	0.999998
15	N	0.373578	0.747152	0
16	H	0.326252	0.599993	1e-06
17	H	0.270514	0.671415	8e-06
18	H	0.399159	0.727186	0.999997
19	C	0.637847	0.327306	0.999995
20	O	0.61258	0.322874	0.999991
21	C	0.660691	0.356924	0.999998
22	C	0.65626	0.378755	0
23	N	0.627977	0.373649	0
24	C	0.689912	0.362181	3e-06
25	O	0.710442	0.387708	5e-06
26	C	0.696927	0.339403	6e-06
27	C	0.723817	0.3449	5e-06
28	N	0.746046	0.373944	0
29	C	0.672984	0.310022	4e-06
30	O	0.678559	0.290325	7e-06
31	C	0.643293	0.303445	0.999999
32	C	0.622186	0.276641	0.999998
33	N	0.626422	0.252848	0
34	H	0.673748	0.400007	1e-06
35	H	0.729486	0.328585	8e-06
36	H	0.600841	0.272814	0.999997
37	C	0.610717	0.390689	0
38	C	0.600112	0.401049	0.137494
39	C	0.586457	0.415385	0.054317
40	C	0.571926	0.42986	0.169939
41	C	0.558811	0.443631	0.08916
42	C	0.547623	0.454582	0.230128
43	C	0.552422	0.448952	0.41534
44	C	0.544137	0.456793	0.592551
45	C	0.5488	0.451038	0.777762
46	C	0.537659	0.462045	0.918674
47	C	0.524716	0.475985	0.837878
48	C	0.510286	0.49056	0.953515
49	C	0.5092	0.490774	0.149805
50	S	0.492176	0.508215	0.231977
51	C	0.48582	0.515946	0.004844
52	C	0.470913	0.531736	0.971622
53	C	0.459379	0.542045	0.10518
54	C	0.446191	0.556701	0.02095
55	C	0.447684	0.557388	0.82376
56	C	0.436599	0.570728	0.696208
57	C	0.429724	0.591464	0.743786
58	C	0.419056	0.600109	0.585659
59	C	0.417951	0.585688	0.420977
60	C	0.407146	0.590452	0.222315
61	C	0.406231	0.575707	0.058933
62	S	0.393495	0.585586	0.86602
63	C	0.389283	0.609311	0
64	C	0.397201	0.610127	0.187301
65	S	0.429707	0.562047	0.458579
66	S	0.465348	0.540237	0.745165
67	C	0.496807	0.505068	0.870707
68	S	0.526126	0.475649	0.59467
69	S	0.570618	0.430275	0.413165
70	C	0.587446	0.415122	0.85727
71	S	0.604683	0.397745	0.774472
72	H	0.602014	0.398517	0.28929
73	H	0.557059	0.446007	0.937033
74	H	0.536535	0.466098	0.19462
75	H	0.559752	0.439393	0.813326
76	H	0.539315	0.459594	0.070805
77	H	0.517481	0.481621	0.251324
78	H	0.460157	0.539337	0.258007
79	H	0.435941	0.566091	0.103434
80	H	0.432329	0.600385	0.885786
81	H	0.412657	0.616145	0.595304
82	H	0.412338	0.559572	0.041176
83	H	0.395931	0.624048	0.293066
84	H	0.495258	0.507386	0.71817
85	H	0.579034	0.424145	0.755703
86	C	0.608818	0.218475	0
87	C	0.598476	0.197643	0.137494
88	C	0.584163	0.16983	0.054317
89	C	0.569713	0.14101	0.169939
90	C	0.555962	0.114295	0.08916
91	C	0.545031	0.092297	0.230128
92	C	0.550655	0.10266	0.41534
93	C	0.542831	0.086638	0.592551
94	C	0.548581	0.096991	0.777762
95	C	0.537593	0.074984	0.918674
96	C	0.523673	0.048272	0.837878
97	C	0.509122	0.019452	0.953515
98	C	0.508913	0.018162	0.149805
99	S	0.4915	0.983916	0.231977
100	C	0.483775	0.969917	0.004844
101	C	0.468008	0.939414	0.971622
102	C	0.457723	0.917713	0.10518
103	C	0.443085	0.890044	0.02095
104	C	0.442389	0.890842	0.82376
105	C	0.429061	0.866569	0.696208
106	C	0.408293	0.839113	0.743786
107	C	0.399673	0.819927	0.585659
108	C	0.414144	0.833181	0.420977
109	C	0.409418	0.817721	0.222315
110	C	0.424214	0.831487	0.058933
111	S	0.414365	0.80902	0.86602
112	C	0.390587	0.781231	0
113	C	0.389729	0.788275	0.187301
114	S	0.437803	0.86837	0.458579
115	S	0.459508	0.925434	0.745165
116	C	0.494634	0.991641	0.870707
117	S	0.524002	0.050004	0.59467
118	S	0.569303	0.139299	0.413165
119	C	0.584421	0.171073	0.85727
120	S	0.601769	0.205467	0.774472
121	H	0.601008	0.202051	0.28929
122	H	0.553587	0.110191	0.937033
123	H	0.533533	0.069835	0.19462
124	H	0.560209	0.119445	0.813326
125	H	0.540044	0.079067	0.070805
126	H	0.518053	0.035485	0.251324
127	H	0.460436	0.921179	0.258007
128	H	0.433715	0.87053	0.103434
129	H	0.399332	0.832819	0.885786
130	H	0.383619	0.79762	0.595304
131	H	0.440369	0.853602	0.041176
132	H	0.375771	0.773161	0.293066
133	H	0.492316	0.987798	0.71817
134	H	0.57541	0.153748	0.755703
135	C	0.78002	0.390395	0
136	C	0.800967	0.400866	0.137494
137	C	0.828936	0.414344	0.054317
138	C	0.857916	0.428689	0.169939
139	C	0.884781	0.441633	0.08916
140	C	0.906901	0.45268	0.230128
141	C	0.896478	0.447946	0.41534
142	C	0.912588	0.456128	0.592551
143	C	0.902175	0.45153	0.777762
144	C	0.924304	0.462529	0.918674
145	C	0.951167	0.475302	0.837878
146	C	0.980147	0.489547	0.953515
147	C	0.981442	0.490623	0.149805
148	S	0.015879	0.507427	0.231977
149	C	0.02996	0.513696	0.004844
150	C	0.060634	0.528408	0.971622
151	C	0.082453	0.539801	0.10518
152	C	0.11028	0.552814	0.02095
153	C	0.109482	0.551329	0.82376
154	C	0.133895	0.562262	0.696208
155	C	0.161538	0.568982	0.743786
156	C	0.180825	0.579523	0.585659
157	C	0.16746	0.58069	0.420977
158	C	0.182991	0.591385	0.222315
159	C	0.169111	0.592365	0.058933
160	S	0.191695	0.604952	0.86602
161	C	0.219686	0.609016	0
162	C	0.212625	0.601156	0.187301
163	S	0.132046	0.569141	0.458579
164	S	0.074699	0.533888	0.745165
165	C	0.008115	0.502849	0.870707
166	S	0.949427	0.473905	0.59467
167	S	0.859634	0.429985	0.413165
168	C	0.827688	0.413363	0.85727
169	S	0.793103	0.396347	0.774472
170	H	0.796533	0.398991	0.28929
171	H	0.888909	0.44336	0.937033
172	H	0.929488	0.463625	0.19462
173	H	0.879594	0.44072	0.813326
174	H	0.920196	0.460897	0.070805
175	H	0.964021	0.482452	0.251324
176	H	0.078963	0.539042	0.258007
177	H	0.129899	0.562937	0.103434
178	H	0.167895	0.566354	0.885786
179	H	0.20328	0.585794	0.595304
180	H	0.146848	0.586384	0.041176
181	H	0.227854	0.602349	0.293066
182	H	0.011981	0.504374	0.71817
183	H	0.845111	0.421665	0.755703
