data_C90H48N12O6_2023-05-10_22:08:22
#******************************************
#
# CIF file created by Zeo++
# Zeo++ is an open source package to
# analyze microporous materials
#
#*******************************************

_cell_length_a		39.8544   
_cell_length_b		40.153   
_cell_length_c		7   
_cell_angle_alpha		90   
_cell_angle_beta		90   
_cell_angle_gamma		119.675   

_symmetry_space_group_name_H-M		'P1'
_symmetry_Int_Tables_number		1
_symmetry_cell_setting		Monoclinic

loop_
_symmetry_equiv_pos_as_xyz
'+x,+y,+z'

loop_
_atom_site_label
_atom_site_type_symbol
_atom_site_fract_x
_atom_site_fract_y
_atom_site_fract_z
1	C	0.372211	0.674778	0.999995
2	O	0.406298	0.680742	0.999991
3	C	0.341451	0.63492	0.999998
4	C	0.34748	0.605541	0
5	N	0.385637	0.612411	0
6	C	0.30203	0.627845	3e-06
7	O	0.274383	0.593492	5e-06
8	C	0.292511	0.658498	6e-06
9	C	0.256236	0.651101	5e-06
10	N	0.226305	0.612015	0
11	C	0.324755	0.698038	4e-06
12	O	0.317187	0.724545	7e-06
13	C	0.364807	0.706889	0.999999
14	C	0.39323	0.74296	0.999998
15	N	0.387458	0.77498	0
16	H	0.32393	0.576941	1e-06
17	H	0.248549	0.673057	8e-06
18	H	0.422026	0.748111	0.999997
19	C	0.627789	0.325222	0.999995
20	O	0.593702	0.319258	0.999991
21	C	0.658549	0.36508	0.999998
22	C	0.65252	0.394459	0
23	N	0.614363	0.387589	0
24	C	0.69797	0.372155	3e-06
25	O	0.725617	0.406508	5e-06
26	C	0.707489	0.341502	6e-06
27	C	0.743764	0.348899	5e-06
28	N	0.773695	0.387985	0
29	C	0.675245	0.301962	4e-06
30	O	0.682813	0.275455	7e-06
31	C	0.635193	0.293111	0.999999
32	C	0.60677	0.25704	0.999998
33	N	0.612542	0.22502	0
34	H	0.67607	0.423059	1e-06
35	H	0.751451	0.326943	8e-06
36	H	0.577974	0.251889	0.999997
37	C	0.408966	0.58948	0
38	C	0.437812	0.626919	0.984214
39	C	0.472103	0.626144	0.938768
40	C	0.463178	0.588171	0.930346
41	C	0.487433	0.571243	0.886626
42	C	0.501529	0.57534	0.699872
43	C	0.523833	0.559025	0.646326
44	C	0.532511	0.538249	0.778341
45	C	0.554816	0.521848	0.723875
46	C	0.563625	0.501092	0.8547
47	C	0.550431	0.495785	0.045196
48	C	0.558675	0.474673	0.182124
49	C	0.580103	0.45493	0.134188
50	C	0.616147	0.461738	0.192815
51	C	0.623128	0.433768	0.106647
52	C	0.591034	0.41052	0
53	N	0.565033	0.42307	0.017982
54	C	0.545692	0.471684	0.370537
55	C	0.524144	0.488751	0.425209
56	C	0.515099	0.509163	0.292647
57	C	0.49339	0.526157	0.348003
58	C	0.484255	0.546588	0.216691
59	C	0.496348	0.550799	0.024553
60	C	0.518891	0.53397	0.968472
61	C	0.528164	0.512889	0.101689
62	N	0.424183	0.566191	0.965941
63	H	0.434809	0.652075	0.002575
64	H	0.500469	0.65071	0.915745
65	H	0.494893	0.591126	0.594264
66	H	0.534284	0.562652	0.500023
67	H	0.565843	0.525169	0.578817
68	H	0.581633	0.489447	0.805601
69	H	0.635472	0.484665	0.286948
70	H	0.648713	0.431098	0.121953
71	H	0.53875	0.410916	0.955327
72	H	0.552117	0.455687	0.47583
73	H	0.514408	0.485837	0.572579
74	H	0.483432	0.523901	0.494655
75	H	0.467804	0.559784	0.268113
76	H	0.409176	0.537227	0.967028
77	C	0.410334	0.820843	0
78	C	0.372549	0.812186	0.984214
79	C	0.373103	0.846881	0.938768
80	C	0.411295	0.875777	0.930346
81	C	0.428136	0.916591	0.886626
82	C	0.423929	0.926466	0.699872
83	C	0.440168	0.96474	0.646326
84	C	0.460975	0.993967	0.778341
85	C	0.4773	0.032328	0.723875
86	C	0.498086	0.061663	0.8547
87	C	0.503502	0.053883	0.045196
88	C	0.524649	0.083014	0.182124
89	C	0.544336	0.123828	0.134188
90	C	0.537264	0.152724	0.192815
91	C	0.565306	0.187418	0.106647
92	C	0.588861	0.178762	0
93	N	0.576428	0.140571	0.017982
94	C	0.527735	0.073139	0.370537
95	C	0.510737	0.034864	0.425209
96	C	0.490298	0.005637	0.292647
97	C	0.473373	0.967276	0.348003
98	C	0.452916	0.937941	0.216691
99	C	0.448608	0.945722	0.024553
100	C	0.465361	0.984744	0.968472
101	C	0.486471	0.014861	0.101689
102	N	0.433622	0.859034	0.965941
103	H	0.347306	0.784223	0.002575
104	H	0.348249	0.85054	0.915745
105	H	0.40812	0.904218	0.594264
106	H	0.436458	0.971477	0.500023
107	H	0.473893	0.039939	0.578817
108	H	0.509662	0.091049	0.805601
109	H	0.514114	0.149065	0.286948
110	H	0.56782	0.215382	0.121953
111	H	0.588805	0.126642	0.955327
112	H	0.543757	0.095387	0.47583
113	H	0.513726	0.028127	0.572579
114	H	0.475704	0.959666	0.494655
115	H	0.439771	0.908555	0.268113
116	H	0.462807	0.872962	0.967028
117	C	0.1801	0.589084	0
118	C	0.189039	0.560301	0.984214
119	C	0.154195	0.526381	0.938768
120	C	0.124928	0.535458	0.930346
121	C	0.083831	0.511572	0.886626
122	C	0.073942	0.4976	0.699872
123	C	0.0354	0.47564	0.646326
124	C	0.005914	0.46719	0.778341
125	C	0.967285	0.44523	0.723875
126	C	0.93769	0.43665	0.8547
127	C	0.945468	0.449738	0.045196
128	C	0.916076	0.441719	0.182124
129	C	0.874961	0.420648	0.134188
130	C	0.845989	0.384944	0.192815
131	C	0.810966	0.37822	0.106647
132	C	0.819505	0.410124	0
133	N	0.857939	0.435766	0.017982
134	C	0.925973	0.454583	0.370537
135	C	0.96452	0.475791	0.425209
136	C	0.994003	0.484606	0.292647
137	C	0.032637	0.505972	0.348003
138	C	0.062229	0.514877	0.216691
139	C	0.054444	0.502886	0.024553
140	C	0.015147	0.480692	0.968472
141	C	0.984766	0.471656	0.101689
142	N	0.141595	0.574181	0.965941
143	H	0.217285	0.563108	0.002575
144	H	0.150682	0.498156	0.915745
145	H	0.096387	0.504062	0.594264
146	H	0.028659	0.465277	0.500023
147	H	0.959664	0.434298	0.578817
148	H	0.908105	0.41891	0.805601
149	H	0.849815	0.365676	0.286948
150	H	0.782868	0.352926	0.121953
151	H	0.871845	0.461848	0.955327
152	H	0.903526	0.448332	0.47583
153	H	0.971266	0.485441	0.572579
154	H	0.040264	0.515839	0.494655
155	H	0.091825	0.531066	0.268113
156	H	0.127418	0.589217	0.967028
