data_C81H42N6O6S12_2023-05-12_12:31:36
#******************************************
#
# CIF file created by Zeo++
# Zeo++ is an open source package to
# analyze microporous materials
#
#*******************************************

_cell_length_a		38.4461   
_cell_length_b		38.7447   
_cell_length_c		7   
_cell_angle_alpha		90   
_cell_angle_beta		90   
_cell_angle_gamma		119.663   

_symmetry_space_group_name_H-M		'P1'
_symmetry_Int_Tables_number		1
_symmetry_cell_setting		Monoclinic

loop_
_symmetry_equiv_pos_as_xyz
'+x,+y,+z'

loop_
_atom_site_label
_atom_site_type_symbol
_atom_site_fract_x
_atom_site_fract_y
_atom_site_fract_z
1	C	0.373633	0.675072	0.999995
2	O	0.408967	0.681252	0.999991
3	C	0.341756	0.63377	0.999998
4	C	0.348014	0.603327	0
5	N	0.387566	0.610446	0
6	C	0.300893	0.626439	3e-06
7	O	0.272242	0.590841	5e-06
8	C	0.291018	0.658202	6e-06
9	C	0.253416	0.650537	5e-06
10	N	0.222398	0.610035	0
11	C	0.324433	0.699174	4e-06
12	O	0.316581	0.726642	7e-06
13	C	0.36595	0.708346	0.999999
14	C	0.395405	0.745724	0.999998
15	N	0.389414	0.778904	0
16	H	0.323607	0.57369	1e-06
17	H	0.245441	0.673289	8e-06
18	H	0.425255	0.751061	0.999997
19	C	0.626367	0.324928	0.999995
20	O	0.591033	0.318748	0.999991
21	C	0.658244	0.36623	0.999998
22	C	0.651986	0.396673	0
23	N	0.612434	0.389554	0
24	C	0.699107	0.373561	3e-06
25	O	0.727758	0.409159	5e-06
26	C	0.708982	0.341798	6e-06
27	C	0.746584	0.349463	5e-06
28	N	0.777602	0.389965	0
29	C	0.675567	0.300826	4e-06
30	O	0.683419	0.273358	7e-06
31	C	0.63405	0.291654	0.999999
32	C	0.604595	0.254276	0.999998
33	N	0.610586	0.221096	0
34	H	0.676393	0.42631	1e-06
35	H	0.754559	0.326711	8e-06
36	H	0.574745	0.248939	0.999997
37	C	0.411756	0.586684	0
38	C	0.387594	0.594308	0.115365
39	C	0.389531	0.583631	0.308804
40	C	0.415071	0.568277	0.333894
41	C	0.424269	0.554452	0.509195
42	C	0.450743	0.540298	0.535211
43	C	0.452681	0.529025	0.728289
44	C	0.4774	0.513462	0.794822
45	C	0.487438	0.511263	0.976865
46	C	0.514087	0.493179	0.986071
47	C	0.517668	0.485168	0.778913
48	C	0.540744	0.467396	0.72035
49	C	0.561603	0.456537	0.843642
50	S	0.58618	0.436064	0.728314
51	C	0.569522	0.441156	0.507913
52	C	0.580496	0.428428	0.334226
53	C	0.604431	0.411096	0.315226
54	C	0.608937	0.402329	0.121599
55	C	0.588244	0.413316	0
56	S	0.563883	0.433668	0.112936
57	C	0.545535	0.458376	0.52682
58	C	0.496367	0.497077	0.673353
59	C	0.427216	0.535151	0.844001
60	S	0.401774	0.553901	0.72228
61	S	0.436334	0.567217	0.118478
62	H	0.369441	0.606782	0.06626
63	H	0.372705	0.587247	0.42365
64	H	0.468416	0.538286	0.419788
65	H	0.478434	0.521185	0.101893
66	H	0.499908	0.465836	0.070716
67	H	0.543088	0.514262	0.048349
68	H	0.563999	0.459412	0.997377
69	H	0.618367	0.404776	0.434509
70	H	0.626392	0.38879	0.076712
71	H	0.531772	0.464365	0.405776
72	H	0.493068	0.49479	0.52007
73	H	0.42181	0.529407	0.995308
74	C	0.413116	0.826428	0
75	C	0.405622	0.79496	0.115365
76	C	0.416333	0.807481	0.308804
77	C	0.431581	0.847988	0.333894
78	C	0.445405	0.870817	0.509195
79	C	0.459442	0.911057	0.535211
80	C	0.470751	0.92417	0.728289
81	C	0.486215	0.964074	0.794822
82	C	0.488355	0.976184	0.976865
83	C	0.506338	0.020502	0.986071
84	C	0.514361	0.032	0.778913
85	C	0.532054	0.072473	0.72035
86	C	0.542819	0.103887	0.843642
87	S	0.563216	0.148527	0.728314
88	C	0.558215	0.126996	0.507913
89	C	0.570924	0.150491	0.334226
90	C	0.58817	0.191376	0.315226
91	C	0.596945	0.20454	0.121599
92	C	0.586049	0.173162	0
93	S	0.565773	0.128856	0.112936
94	C	0.541082	0.08617	0.52682
95	C	0.502544	0.999106	0.673353
96	C	0.46477	0.892902	0.844001
97	S	0.446111	0.849118	0.72228
98	S	0.432502	0.870069	0.118478
99	H	0.393216	0.764618	0.06626
100	H	0.412815	0.787249	0.42365
101	H	0.461342	0.930533	0.419788
102	H	0.478451	0.957425	0.101893
103	H	0.533897	0.033637	0.070716
104	H	0.484968	0.028242	0.048349
105	H	0.539916	0.103401	0.997377
106	H	0.594423	0.211435	0.434509
107	H	0.610425	0.23525	0.076712
108	H	0.535159	0.066611	0.405776
109	H	0.504863	0.998115	0.52007
110	H	0.470575	0.89326	0.995308
111	C	0.174506	0.586273	0
112	C	0.206162	0.610116	0.115365
113	C	0.193514	0.608273	0.308804
114	C	0.152726	0.583119	0.333894
115	C	0.129705	0.574116	0.509195
116	C	0.089193	0.54803	0.535211
117	C	0.075946	0.546189	0.728289
118	C	0.035763	0.521848	0.794822
119	C	0.023585	0.511937	0.976865
120	C	0.978953	0.485704	0.986071
121	C	0.96735	0.482217	0.778913
122	C	0.92658	0.459516	0.72035
123	C	0.894956	0.43896	0.843642
124	S	0.849982	0.414793	0.728314
125	C	0.871641	0.431232	0.507913
126	C	0.847958	0.420466	0.334226
127	C	0.806777	0.396913	0.315226
128	C	0.793496	0.392516	0.121599
129	C	0.825085	0.412906	0
130	S	0.869722	0.43686	0.112936
131	C	0.912761	0.454838	0.52682
132	C	0.000468	0.503202	0.673353
133	C	0.107392	0.571332	0.844001
134	S	0.151493	0.596366	0.72228
135	S	0.130542	0.562098	0.118478
136	H	0.236721	0.627985	0.06626
137	H	0.213858	0.624889	0.42365
138	H	0.069619	0.530565	0.419788
139	H	0.042493	0.520774	0.101893
140	H	0.965574	0.499912	0.070716
141	H	0.971323	0.456881	0.048349
142	H	0.895463	0.436571	0.997377
143	H	0.786588	0.383173	0.434509
144	H	0.762561	0.375345	0.076712
145	H	0.932446	0.468409	0.405776
146	H	0.001447	0.50648	0.52007
147	H	0.106993	0.576717	0.995308
