data_C90H42N6O6S6_2023-05-14_12:35:24
#******************************************
#
# CIF file created by Zeo++
# Zeo++ is an open source package to
# analyze microporous materials
#
#*******************************************

_cell_length_a		41.2524   
_cell_length_b		41.5509   
_cell_length_c		7   
_cell_angle_alpha		90   
_cell_angle_beta		90   
_cell_angle_gamma		119.686   

_symmetry_space_group_name_H-M		'P1'
_symmetry_Int_Tables_number		1
_symmetry_cell_setting		Monoclinic

loop_
_symmetry_equiv_pos_as_xyz
'+x,+y,+z'

loop_
_atom_site_label
_atom_site_type_symbol
_atom_site_fract_x
_atom_site_fract_y
_atom_site_fract_z
1	C	0.370895	0.674506	0.999995
2	O	0.403828	0.68027	0.999991
3	C	0.341169	0.635985	0.999998
4	C	0.346988	0.607591	0
5	N	0.383853	0.614231	0
6	C	0.303083	0.629147	3e-06
7	O	0.276365	0.595946	5e-06
8	C	0.293893	0.658772	6e-06
9	C	0.258846	0.651623	5e-06
10	N	0.229921	0.613848	0
11	C	0.325052	0.696986	4e-06
12	O	0.317746	0.722604	7e-06
13	C	0.363749	0.70554	0.999999
14	C	0.391217	0.740401	0.999998
15	N	0.385647	0.771347	0
16	H	0.324229	0.57995	1e-06
17	H	0.251423	0.672843	8e-06
18	H	0.419038	0.745379	0.999997
19	C	0.629105	0.325494	0.999995
20	O	0.596172	0.31973	0.999991
21	C	0.658831	0.364015	0.999998
22	C	0.653012	0.392409	0
23	N	0.616147	0.385769	0
24	C	0.696917	0.370853	3e-06
25	O	0.723635	0.404054	5e-06
26	C	0.706107	0.341228	6e-06
27	C	0.741154	0.348377	5e-06
28	N	0.770079	0.386152	0
29	C	0.674948	0.303014	4e-06
30	O	0.682254	0.277396	7e-06
31	C	0.636251	0.29446	0.999999
32	C	0.608783	0.259599	0.999998
33	N	0.614353	0.228653	0
34	H	0.675771	0.42005	1e-06
35	H	0.748577	0.327157	8e-06
36	H	0.580962	0.254621	0.999997
37	C	0.406387	0.592069	0
38	C	0.377172	0.558045	0.049153
39	C	0.385781	0.529325	0.011934
40	C	0.421177	0.542896	0.936662
41	C	0.440145	0.522457	0.879971
42	C	0.439007	0.513233	0.686561
43	C	0.455977	0.493376	0.623777
44	C	0.474343	0.482203	0.752932
45	C	0.491304	0.462262	0.689278
46	C	0.509672	0.450981	0.817079
47	C	0.511832	0.459148	0.013768
48	C	0.530308	0.448115	0.148095
49	C	0.548048	0.426453	0.092571
50	C	0.531819	0.388606	0.066335
51	C	0.558418	0.377804	0.012031
52	C	0.593613	0.407931	0
53	S	0.595249	0.44851	0.052375
54	C	0.531442	0.457335	0.341509
55	C	0.514658	0.477377	0.404117
56	C	0.496278	0.488537	0.274974
57	C	0.479458	0.508618	0.338494
58	C	0.461042	0.519851	0.210739
59	C	0.458663	0.511465	0.014258
60	C	0.475848	0.491119	0.949078
61	C	0.494685	0.479533	0.078912
62	S	0.443551	0.590134	0.910771
63	H	0.351027	0.553643	0.108281
64	H	0.367	0.500168	0.03916
65	H	0.4248	0.521546	0.583446
66	H	0.454684	0.486707	0.472688
67	H	0.490532	0.455275	0.538923
68	H	0.522567	0.435672	0.759663
69	H	0.502247	0.369605	0.085037
70	H	0.551783	0.349557	0.984041
71	H	0.545505	0.448878	0.444761
72	H	0.516086	0.48418	0.555078
73	H	0.480517	0.51589	0.488578
74	H	0.448583	0.535594	0.267741
75	C	0.407758	0.815672	0
76	C	0.442104	0.820567	0.049153
77	C	0.470887	0.857626	0.011934
78	C	0.457038	0.879172	0.936662
79	C	0.477441	0.918255	0.879971
80	C	0.486709	0.926295	0.686561
81	C	0.50654	0.962822	0.623777
82	C	0.517643	0.992101	0.752932
83	C	0.537558	0.028702	0.689278
84	C	0.54877	0.058092	0.817079
85	C	0.540555	0.052113	0.013768
86	C	0.551517	0.081362	0.148095
87	C	0.573156	0.120446	0.092571
88	C	0.611259	0.141991	0.066335
89	C	0.621937	0.179051	0.012031
90	C	0.591465	0.183946	0
91	S	0.550711	0.145242	0.052375
92	C	0.542252	0.073323	0.341509
93	C	0.522234	0.036796	0.404117
94	C	0.511145	0.007517	0.274974
95	C	0.491088	0.970915	0.338494
96	C	0.479925	0.941526	0.210739
97	C	0.48836	0.947505	0.014258
98	C	0.508681	0.984731	0.949078
99	C	0.520195	0.014887	0.078912
100	S	0.409466	0.854376	0.910771
101	H	0.446689	0.799065	0.108281
102	H	0.500281	0.868012	0.03916
103	H	0.478451	0.903973	0.583446
104	H	0.513244	0.968169	0.472688
105	H	0.544579	0.034881	0.538923
106	H	0.564059	0.086065	0.759663
107	H	0.630523	0.131605	0.085037
108	H	0.650341	0.200553	0.984041
109	H	0.550655	0.095645	0.444761
110	H	0.515395	0.031449	0.555078
111	H	0.48378	0.964736	0.488578
112	H	0.464197	0.913552	0.267741
113	C	0.185276	0.591686	0
114	C	0.180144	0.620814	0.049153
115	C	0.142752	0.612474	0.011934
116	C	0.121206	0.577358	0.936662
117	C	0.081835	0.558714	0.879971
118	C	0.073704	0.559898	0.686561
119	C	0.036903	0.543229	0.623777
120	C	0.007435	0.525122	0.752932
121	C	0.970559	0.508461	0.689278
122	C	0.940979	0.490353	0.817079
123	C	0.947034	0.488165	0.013768
124	C	0.917596	0.469948	0.148095
125	C	0.878217	0.452527	0.092571
126	C	0.856343	0.468828	0.066335
127	C	0.819065	0.442571	0.012031
128	C	0.814342	0.407548	0
129	S	0.853461	0.405674	0.052375
130	C	0.925726	0.468767	0.341509
131	C	0.962528	0.485252	0.404117
132	C	0.991997	0.503372	0.274974
133	C	0.028874	0.519893	0.338494
134	C	0.058454	0.538048	0.210739
135	C	0.052397	0.540456	0.014258
136	C	0.014891	0.523576	0.949078
137	C	0.98454	0.505006	0.078912
138	S	0.146403	0.554916	0.910771
139	H	0.201705	0.646717	0.108281
140	H	0.132139	0.631246	0.03916
141	H	0.096169	0.573906	0.583446
142	H	0.031492	0.54455	0.472688
143	H	0.96431	0.50927	0.538923
144	H	0.912794	0.477688	0.759663
145	H	0.86665	0.498215	0.085037
146	H	0.797296	0.449316	0.984041
147	H	0.903261	0.454903	0.444761
148	H	0.96794	0.483797	0.555078
149	H	0.035124	0.5188	0.488578
150	H	0.086641	0.55028	0.267741
