data_C114H54N6O6S12_2023-05-13_10:11:33
#******************************************
#
# CIF file created by Zeo++
# Zeo++ is an open source package to
# analyze microporous materials
#
#*******************************************

_cell_length_a		53.8682   
_cell_length_b		54.1666   
_cell_length_c		7   
_cell_angle_alpha		90   
_cell_angle_beta		90   
_cell_angle_gamma		119.759   

_symmetry_space_group_name_H-M		'P1'
_symmetry_Int_Tables_number		1
_symmetry_cell_setting		Monoclinic

loop_
_symmetry_equiv_pos_as_xyz
'+x,+y,+z'

loop_
_atom_site_label
_atom_site_type_symbol
_atom_site_fract_x
_atom_site_fract_y
_atom_site_fract_z
1	C	0.362107	0.672684	0.999995
2	O	0.387334	0.677109	0.999991
3	C	0.339299	0.643113	0.999998
4	C	0.343723	0.621317	0
5	N	0.371962	0.626414	0
6	C	0.310125	0.637865	3e-06
7	O	0.289627	0.612378	5e-06
8	C	0.303121	0.660606	6e-06
9	C	0.276274	0.655118	5e-06
10	N	0.25408	0.62612	0
11	C	0.327026	0.689941	4e-06
12	O	0.32146	0.709607	7e-06
13	C	0.35667	0.696508	0.999999
14	C	0.377744	0.723269	0.999998
15	N	0.373514	0.747025	0
16	H	0.326263	0.600098	1e-06
17	H	0.270614	0.671408	8e-06
18	H	0.399055	0.727091	0.999997
19	C	0.637893	0.327316	0.999995
20	O	0.612666	0.322891	0.999991
21	C	0.660701	0.356887	0.999998
22	C	0.656277	0.378683	0
23	N	0.628038	0.373586	0
24	C	0.689875	0.362135	3e-06
25	O	0.710373	0.387622	5e-06
26	C	0.696879	0.339394	6e-06
27	C	0.723726	0.344882	5e-06
28	N	0.74592	0.37388	0
29	C	0.672974	0.310059	4e-06
30	O	0.67854	0.290393	7e-06
31	C	0.64333	0.303492	0.999999
32	C	0.622256	0.276731	0.999998
33	N	0.626486	0.252975	0
34	H	0.673737	0.399902	1e-06
35	H	0.729386	0.328592	8e-06
36	H	0.600945	0.272909	0.999997
37	C	0.389193	0.609401	0
38	C	0.411535	0.630269	0.10112
39	S	0.432636	0.618006	0.1958
40	C	0.411844	0.584574	0.099964
41	C	0.417947	0.561624	0.127873
42	C	0.398485	0.532792	0.118986
43	C	0.411281	0.51556	0.150607
44	C	0.440304	0.53167	0.182138
45	C	0.460889	0.522013	0.219913
46	C	0.467345	0.519871	0.411021
47	C	0.486329	0.510368	0.456839
48	C	0.499223	0.502742	0.312743
49	C	0.518176	0.493119	0.359421
50	C	0.531132	0.485456	0.216637
51	C	0.525709	0.487132	0.021337
52	C	0.538529	0.479528	0.872057
53	C	0.55893	0.469641	0.90982
54	C	0.588079	0.485518	0.936328
55	C	0.600601	0.468066	0.969074
56	C	0.58075	0.439299	0.967563
57	C	0.586577	0.416147	0.994076
58	C	0.612223	0.416852	0.957804
59	C	0.610807	0.390599	0
60	C	0.584683	0.370421	0.068636
61	S	0.561528	0.383358	0.081384
62	S	0.547057	0.434008	0.923961
63	C	0.532186	0.481804	0.68088
64	C	0.513253	0.491369	0.635061
65	C	0.500299	0.498921	0.779184
66	C	0.481324	0.508515	0.732513
67	C	0.468312	0.51611	0.875315
68	C	0.473737	0.51444	0.070614
69	C	0.493074	0.504722	0.118586
70	C	0.50641	0.496894	0.97336
71	S	0.451693	0.567238	0.174422
72	C	0.389047	0.583172	0.998866
73	H	0.41664	0.652013	0.124627
74	H	0.375866	0.524173	0.092174
75	H	0.399773	0.492517	0.150177
76	H	0.457519	0.525624	0.525568
77	H	0.490925	0.50896	0.606494
78	H	0.523102	0.491397	0.507887
79	H	0.54564	0.477985	0.260913
80	H	0.599874	0.508549	0.93232
81	H	0.62325	0.476462	0.993549
82	H	0.630981	0.435341	0.901717
83	H	0.577911	0.348828	0.111655
84	H	0.542031	0.476073	0.566319
85	H	0.508737	0.492883	0.485362
86	H	0.476416	0.510253	0.584045
87	H	0.453779	0.523545	0.831053
88	H	0.37319	0.564195	0.92626
89	C	0.390497	0.781051	0
90	C	0.369456	0.78245	0.10112
91	S	0.381655	0.815587	0.1958
92	C	0.415292	0.82823	0.099964
93	C	0.438284	0.857123	0.127873
94	C	0.4673	0.866507	0.118986
95	C	0.484524	0.896351	0.150607
96	C	0.468223	0.909112	0.182138
97	C	0.477811	0.939146	0.219913
98	C	0.479928	0.947682	0.411021
99	C	0.489368	0.975972	0.456839
100	C	0.496956	0.996353	0.312743
101	C	0.506517	0.024733	0.359421
102	C	0.514142	0.045213	0.216637
103	C	0.512486	0.038165	0.021337
104	C	0.520052	0.058451	0.872057
105	C	0.529871	0.088529	0.90982
106	C	0.513804	0.101648	0.936328
107	C	0.531249	0.131438	0.969074
108	C	0.560202	0.140372	0.967563
109	C	0.583398	0.169192	0.994076
110	C	0.582567	0.193935	0.957804
111	C	0.608908	0.218655	0
112	C	0.629276	0.212819	0.068636
113	S	0.616411	0.176972	0.081384
114	S	0.565673	0.112211	0.923961
115	C	0.517799	0.049892	0.68088
116	C	0.508296	0.02159	0.635061
117	C	0.500783	0.001223	0.779184
118	C	0.491252	0.972852	0.732513
119	C	0.483696	0.952384	0.875315
120	C	0.485345	0.959428	0.070614
121	C	0.494999	0.988282	0.118586
122	C	0.502788	0.009304	0.97336
123	S	0.432489	0.885016	0.174422
124	C	0.416809	0.807008	0.998866
125	H	0.347619	0.765875	0.124627
126	H	0.476055	0.852644	0.092174
127	H	0.507694	0.907866	0.150177
128	H	0.474204	0.932208	0.525568
129	H	0.490759	0.981934	0.606494
130	H	0.508221	0.031334	0.507887
131	H	0.521565	0.067041	0.260913
132	H	0.490644	0.09043	0.93232
133	H	0.522718	0.145553	0.993549
134	H	0.563929	0.194144	0.901717
135	H	0.650969	0.227589	0.111655
136	H	0.523501	0.065364	0.566319
137	H	0.506799	0.015604	0.485362
138	H	0.489531	0.966251	0.584045
139	H	0.476308	0.930567	0.831053
140	H	0.435921	0.810162	0.92626
141	C	0.219866	0.609107	0
142	C	0.218565	0.586841	0.10112
143	S	0.185265	0.565966	0.1958
144	C	0.17242	0.586756	0.099964
145	C	0.143325	0.580812	0.127873
146	C	0.133772	0.60026	0.118986
147	C	0.103752	0.587649	0.150607
148	C	0.09103	0.558777	0.182138
149	C	0.060856	0.538401	0.219913
150	C	0.052283	0.532006	0.411021
151	C	0.023858	0.513219	0.456839
152	C	0.003377	0.500463	0.312743
153	C	0.974863	0.481707	0.359421
154	C	0.954282	0.46889	0.216637
155	C	0.961361	0.474263	0.021337
156	C	0.940975	0.461581	0.872057
157	C	0.910756	0.441389	0.90982
158	C	0.897673	0.412393	0.936328
159	C	0.867706	0.400055	0.969074
160	C	0.858604	0.419888	0.967563
161	C	0.829581	0.414219	0.994076
162	C	0.804766	0.388773	0.957804
163	C	0.779841	0.390305	0
164	C	0.785597	0.41632	0.068636
165	S	0.821617	0.439229	0.081384
166	S	0.886826	0.45334	0.923961
167	C	0.949571	0.467863	0.68088
168	C	0.978007	0.4866	0.635061
169	C	0.998474	0.499415	0.779184
170	C	0.02698	0.518193	0.732513
171	C	0.047548	0.531065	0.875315
172	C	0.040474	0.525692	0.070614
173	C	0.011483	0.506555	0.118586
174	C	0.990358	0.493361	0.97336
175	S	0.115374	0.547305	0.174422
176	C	0.193701	0.609379	0.998866
177	H	0.235296	0.581671	0.124627
178	H	0.147636	0.622742	0.092174
179	H	0.092089	0.599177	0.150177
180	H	0.067833	0.541727	0.525568
181	H	0.017872	0.508666	0.606494
182	H	0.968233	0.476828	0.507887
183	H	0.932351	0.454533	0.260913
184	H	0.909038	0.40058	0.93232
185	H	0.853588	0.377544	0.993549
186	H	0.804646	0.370074	0.901717
187	H	0.770676	0.423142	0.111655
188	H	0.934024	0.458123	0.566319
189	H	0.984019	0.491072	0.485362
190	H	0.033609	0.523054	0.584045
191	H	0.069468	0.545447	0.831053
192	H	0.190445	0.625202	0.92626
