data_C78H36N12O6S12_2023-05-28_18:59:05
#******************************************
#
# CIF file created by Zeo++
# Zeo++ is an open source package to
# analyze microporous materials
#
#*******************************************

_cell_length_a		48.5523   
_cell_length_b		48.8508   
_cell_length_c		7   
_cell_angle_alpha		90   
_cell_angle_beta		90   
_cell_angle_gamma		119.733   

_symmetry_space_group_name_H-M		'P1'
_symmetry_Int_Tables_number		1
_symmetry_cell_setting		Monoclinic

loop_
_symmetry_equiv_pos_as_xyz
'+x,+y,+z'

loop_
_atom_site_label
_atom_site_type_symbol
_atom_site_fract_x
_atom_site_fract_y
_atom_site_fract_z
1	C	0.365254	0.673337	0.999995
2	O	0.39324	0.678243	0.999991
3	C	0.339966	0.640557	0.999998
4	C	0.344887	0.616395	0
5	N	0.376215	0.622046	0
6	C	0.307601	0.634739	3e-06
7	O	0.284874	0.606486	5e-06
8	C	0.299816	0.659949	6e-06
9	C	0.270033	0.653865	5e-06
10	N	0.245426	0.62172	0
11	C	0.326322	0.692467	4e-06
12	O	0.320135	0.714268	7e-06
13	C	0.359208	0.699746	0.999999
14	C	0.382573	0.729412	0.999998
15	N	0.377866	0.755746	0
16	H	0.325528	0.592874	1e-06
17	H	0.263744	0.671922	8e-06
18	H	0.406216	0.733648	0.999997
19	C	0.634746	0.326663	0.999995
20	O	0.60676	0.321757	0.999991
21	C	0.660034	0.359443	0.999998
22	C	0.655113	0.383605	0
23	N	0.623785	0.377954	0
24	C	0.692399	0.365261	3e-06
25	O	0.715126	0.393514	5e-06
26	C	0.700184	0.340051	6e-06
27	C	0.729967	0.346135	5e-06
28	N	0.754574	0.37828	0
29	C	0.673678	0.307533	4e-06
30	O	0.679865	0.285732	7e-06
31	C	0.640792	0.300254	0.999999
32	C	0.617427	0.270588	0.999998
33	N	0.622134	0.244254	0
34	H	0.674472	0.407126	1e-06
35	H	0.736256	0.328078	8e-06
36	H	0.593784	0.266352	0.999997
37	C	0.604657	0.396814	0
38	C	0.58839	0.412853	0.974683
39	C	0.580144	0.420983	0.153619
40	C	0.561407	0.439458	0.178203
41	C	0.55354	0.447213	0.350891
42	C	0.536603	0.463914	0.327325
43	C	0.531868	0.468583	0.137584
44	C	0.515484	0.484738	0.061325
45	C	0.511485	0.488683	0.868398
46	N	0.496154	0.5038	0.803464
47	C	0.484522	0.515268	0.938677
48	C	0.468137	0.531422	0.862418
49	C	0.463403	0.536093	0.672677
50	C	0.446465	0.552793	0.64911
51	C	0.438597	0.560546	0.821799
52	C	0.419859	0.57902	0.846382
53	C	0.40935	0.589383	0.694279
54	S	0.389776	0.60868	0.767492
55	C	0.395343	0.603186	0
56	C	0.411611	0.587148	0.025318
57	S	0.45166	0.547664	0.00887
58	C	0.488521	0.511323	0.131604
59	N	0.503851	0.496205	0.196538
60	S	0.548344	0.452339	0.991131
61	C	0.590653	0.41062	0.305722
62	S	0.610226	0.391321	0.232508
63	H	0.582704	0.418461	0.835753
64	H	0.559381	0.441453	0.488855
65	H	0.528154	0.472244	0.444868
66	H	0.52043	0.479864	0.756317
67	H	0.471854	0.527764	0.555133
68	H	0.440625	0.558553	0.511145
69	H	0.411976	0.586798	0.54313
70	H	0.417297	0.58154	0.164249
71	H	0.479575	0.520141	0.243684
72	H	0.588029	0.413207	0.45687
73	C	0.602652	0.20621	0
74	C	0.586644	0.174132	0.974683
75	C	0.578531	0.157872	0.153619
76	C	0.560092	0.120923	0.178203
77	C	0.552353	0.105412	0.350891
78	C	0.535685	0.072012	0.327325
79	C	0.531025	0.062675	0.137584
80	C	0.514902	0.030365	0.061325
81	C	0.510965	0.022478	0.868398
82	N	0.495877	0.992245	0.803464
83	C	0.484432	0.969309	0.938677
84	C	0.46831	0.937	0.862418
85	C	0.463649	0.927662	0.672677
86	C	0.446982	0.894262	0.64911
87	C	0.439244	0.878751	0.821799
88	C	0.420807	0.841803	0.846382
89	C	0.410464	0.821079	0.694279
90	S	0.391205	0.782482	0.767492
91	C	0.396688	0.793465	0
92	C	0.412695	0.825543	0.025318
93	S	0.4521	0.904512	0.00887
94	C	0.488369	0.977196	0.131604
95	N	0.503457	0.007429	0.196538
96	S	0.547236	0.095163	0.991131
97	C	0.588873	0.178596	0.305722
98	S	0.608133	0.217193	0.232508
99	H	0.581048	0.162918	0.835753
100	H	0.558101	0.116931	0.488855
101	H	0.527371	0.055351	0.444868
102	H	0.519766	0.040116	0.756317
103	H	0.471961	0.944323	0.555133
104	H	0.441233	0.882744	0.511145
105	H	0.413044	0.826252	0.54313
106	H	0.418291	0.836756	0.164249
107	H	0.479569	0.959559	0.243684
108	H	0.586291	0.173422	0.45687
109	C	0.792198	0.396488	0
110	C	0.824473	0.412526	0.974683
111	C	0.840833	0.420656	0.153619
112	C	0.878008	0.43913	0.178203
113	C	0.893614	0.446886	0.350891
114	C	0.927219	0.463585	0.327325
115	C	0.936614	0.468254	0.137584
116	C	0.969122	0.484408	0.061325
117	C	0.977058	0.48835	0.868398
118	N	0.007476	0.503466	0.803464
119	C	0.030553	0.514934	0.938677
120	C	0.063061	0.531089	0.862418
121	C	0.072456	0.535756	0.672677
122	C	0.10606	0.552456	0.64911
123	C	0.121667	0.560214	0.821799
124	C	0.158842	0.578689	0.846382
125	C	0.179693	0.58905	0.694279
126	S	0.218527	0.608349	0.767492
127	C	0.207476	0.60286	0
128	C	0.175202	0.586821	0.025318
129	S	0.095748	0.547335	0.00887
130	C	0.022617	0.510992	0.131604
131	N	0.992199	0.495877	0.196538
132	S	0.903927	0.452009	0.991131
133	C	0.819982	0.410295	0.305722
134	S	0.781148	0.390997	0.232508
135	H	0.835756	0.418133	0.835753
136	H	0.882025	0.441127	0.488855
137	H	0.943983	0.471916	0.444868
138	H	0.959312	0.479531	0.756317
139	H	0.055692	0.527425	0.555133
140	H	0.117649	0.558214	0.511145
141	H	0.174488	0.586461	0.54313
142	H	0.163919	0.581215	0.164249
143	H	0.040363	0.519812	0.243684
144	H	0.825187	0.412882	0.45687
