data_C120H60N6O6S18_2023-05-15_11:56:15
#******************************************
#
# CIF file created by Zeo++
# Zeo++ is an open source package to
# analyze microporous materials
#
#*******************************************

_cell_length_a		62.8982   
_cell_length_b		63.1966   
_cell_length_c		7   
_cell_angle_alpha		90   
_cell_angle_beta		90   
_cell_angle_gamma		119.794   

_symmetry_space_group_name_H-M		'P1'
_symmetry_Int_Tables_number		1
_symmetry_cell_setting		Monoclinic

loop_
_symmetry_equiv_pos_as_xyz
'+x,+y,+z'

loop_
_atom_site_label
_atom_site_type_symbol
_atom_site_fract_x
_atom_site_fract_y
_atom_site_fract_z
1	C	0.35798	0.671826	0.999995
2	O	0.379588	0.67562	0.999991
3	C	0.338429	0.646472	0.999998
4	C	0.342205	0.627784	0
5	N	0.366392	0.632154	0
6	C	0.31344	0.641972	3e-06
7	O	0.295869	0.620119	5e-06
8	C	0.307455	0.661471	6e-06
9	C	0.284459	0.656765	5e-06
10	N	0.265434	0.631902	0
11	C	0.327946	0.686622	4e-06
12	O	0.323191	0.703484	7e-06
13	C	0.353338	0.692253	0.999999
14	C	0.371402	0.715198	0.999998
15	N	0.367794	0.735567	0
16	H	0.327238	0.60959	1e-06
17	H	0.279621	0.670732	8e-06
18	H	0.389656	0.718475	0.999997
19	C	0.64202	0.328174	0.999995
20	O	0.620412	0.32438	0.999991
21	C	0.661571	0.353528	0.999998
22	C	0.657795	0.372216	0
23	N	0.633608	0.367846	0
24	C	0.68656	0.358028	3e-06
25	O	0.704131	0.379881	5e-06
26	C	0.692545	0.338529	6e-06
27	C	0.715541	0.343235	5e-06
28	N	0.734566	0.368098	0
29	C	0.672054	0.313378	4e-06
30	O	0.676809	0.296516	7e-06
31	C	0.646662	0.307747	0.999999
32	C	0.628598	0.284802	0.999998
33	N	0.632206	0.264433	0
34	H	0.672762	0.39041	1e-06
35	H	0.720379	0.329268	8e-06
36	H	0.610344	0.281525	0.999997
37	C	0.61886	0.382433	0
38	C	0.611778	0.371381	0.175119
39	C	0.596864	0.379058	0.273167
40	C	0.593315	0.39575	0.169508
41	C	0.579045	0.406858	0.227845
42	C	0.55914	0.396942	0.350083
43	C	0.549245	0.412696	0.380253
44	C	0.561858	0.434511	0.282128
45	C	0.557082	0.454701	0.279132
46	C	0.573088	0.478767	0.230915
47	C	0.562143	0.493813	0.241594
48	C	0.537914	0.480856	0.297118
49	C	0.52037	0.489594	0.321055
50	C	0.514984	0.493481	0.508099
51	C	0.498966	0.502219	0.540146
52	C	0.488296	0.507324	0.385422
53	C	0.493193	0.503801	0.194297
54	C	0.482476	0.509036	0.034868
55	C	0.465602	0.518582	0.056912
56	C	0.440416	0.505885	0.069997
57	C	0.430456	0.52174	0.087562
58	C	0.448212	0.546183	0.087168
59	C	0.444764	0.567147	0.1017
60	C	0.461815	0.590763	0.152029
61	C	0.451988	0.60684	0.150837
62	C	0.427599	0.595345	0.098244
63	C	0.412337	0.606448	0.083005
64	C	0.41583	0.627309	0.176052
65	C	0.397718	0.633765	0.128375
66	C	0.38114	0.617567	0
67	S	0.386884	0.595069	0.937663
68	S	0.416974	0.565003	0.055053
69	S	0.476939	0.549396	0.065823
70	C	0.487607	0.504892	0.847873
71	C	0.50329	0.49576	0.815714
72	C	0.514011	0.490719	0.970395
73	C	0.509451	0.494613	0.16166
74	S	0.528863	0.450889	0.338902
75	S	0.585528	0.435317	0.154089
76	S	0.608132	0.40167	0.952404
77	H	0.616842	0.358526	0.23132
78	H	0.589286	0.372665	0.414421
79	H	0.551708	0.379079	0.414852
80	H	0.533626	0.408067	0.471285
81	H	0.591968	0.485536	0.189318
82	H	0.571507	0.513111	0.208635
83	H	0.523417	0.489735	0.629634
84	H	0.494786	0.505157	0.685082
85	H	0.475878	0.514208	0.416479
86	H	0.429628	0.486185	0.068104
87	H	0.411011	0.515232	0.100495
88	H	0.480669	0.596573	0.188423
89	H	0.462676	0.626076	0.184933
90	H	0.430654	0.63755	0.275494
91	H	0.39713	0.649377	0.185546
92	H	0.479299	0.50882	0.726508
93	H	0.507206	0.492544	0.670763
94	H	0.526104	0.483448	0.939106
95	C	0.617133	0.235008	0
96	C	0.628243	0.23898	0.175119
97	C	0.620608	0.216522	0.273167
98	C	0.603886	0.196373	0.169508
99	C	0.592808	0.171139	0.227845
100	C	0.602833	0.161244	0.350083
101	C	0.587078	0.135727	0.380253
102	C	0.565153	0.12653	0.282128
103	C	0.544929	0.101681	0.279132
104	C	0.520732	0.093611	0.230915
105	C	0.505691	0.067756	0.241594
106	C	0.518784	0.056596	0.297118
107	C	0.510095	0.030469	0.321055
108	C	0.506219	0.021248	0.508099
109	C	0.497525	0.996637	0.540146
110	C	0.492451	0.980956	0.385422
111	C	0.495963	0.989328	0.194297
112	C	0.490758	0.97347	0.034868
113	C	0.481257	0.947205	0.056912
114	C	0.494092	0.934833	0.069997
115	C	0.478236	0.909151	0.087562
116	C	0.453654	0.902445	0.087168
117	C	0.432648	0.878144	0.1017
118	C	0.408899	0.871561	0.152029
119	C	0.39282	0.845791	0.150837
120	C	0.404447	0.833015	0.098244
121	C	0.393378	0.806799	0.083005
122	C	0.372446	0.789494	0.176052
123	C	0.366048	0.765075	0.128375
124	C	0.382358	0.764741	0
125	S	0.404892	0.79285	0.937663
126	S	0.434913	0.852678	0.055053
127	S	0.450314	0.927779	0.065823
128	C	0.494892	0.982694	0.847873
129	C	0.503983	0.007364	0.815714
130	C	0.508993	0.023033	0.970395
131	C	0.505108	0.014626	0.16166
132	S	0.548868	0.077449	0.338902
133	S	0.564246	0.149236	0.154089
134	S	0.597889	0.205195	0.952404
135	H	0.641112	0.256811	0.23132
136	H	0.62705	0.215362	0.414421
137	H	0.620774	0.171651	0.414852
138	H	0.591784	0.124823	0.471285
139	H	0.513866	0.105622	0.189318
140	H	0.486303	0.05784	0.208635
141	H	0.50994	0.033354	0.629634
142	H	0.494596	0.989559	0.685082
143	H	0.4856	0.961767	0.416479
144	H	0.51389	0.943737	0.068104
145	H	0.484842	0.89632	0.100495
146	H	0.402996	0.884503	0.188423
147	H	0.373489	0.83725	0.184933
148	H	0.362117	0.79402	0.275494
149	H	0.350397	0.748944	0.185546
150	H	0.490988	0.97053	0.726508
151	H	0.507191	0.014456	0.670763
152	H	0.516233	0.042285	0.939106
153	C	0.763627	0.382181	0
154	C	0.759598	0.389261	0.175119
155	C	0.782147	0.404042	0.273167
156	C	0.802419	0.407498	0.169508
157	C	0.827766	0.421625	0.227845
158	C	0.837647	0.441436	0.350083
159	C	0.863297	0.451199	0.380253
160	C	0.872609	0.438581	0.282128
161	C	0.897609	0.443241	0.279132
162	C	0.9058	0.427243	0.230915
163	C	0.931786	0.438052	0.241594
164	C	0.942923	0.462171	0.297118
165	C	0.969155	0.47956	0.321055
166	C	0.978417	0.484893	0.508099
167	C	0.003129	0.500766	0.540146
168	C	0.018873	0.511342	0.385422
169	C	0.010464	0.506493	0.194297
170	C	0.026386	0.517116	0.034868
171	C	0.05276	0.533835	0.056912
172	C	0.065112	0.558904	0.069997
173	C	0.090928	0.568731	0.087562
174	C	0.097754	0.550993	0.087168
175	C	0.122208	0.554331	0.1017
176	C	0.128906	0.537298	0.152029
177	C	0.154812	0.546991	0.150837
178	C	0.167574	0.571262	0.098244
179	C	0.193905	0.586375	0.083005
180	C	0.211343	0.582819	0.176052
181	C	0.235854	0.600782	0.128375
182	C	0.236122	0.617315	0
183	S	0.207844	0.611703	0.937663
184	S	0.147732	0.581941	0.055053
185	S	0.072366	0.522447	0.065823
186	C	0.01712	0.512036	0.847873
187	C	0.992347	0.496498	0.815714
188	C	0.976615	0.485871	0.970395
189	C	0.985061	0.490384	0.16166
190	S	0.921889	0.471284	0.338902
191	S	0.849846	0.415069	0.154089
192	S	0.793598	0.392757	0.952404
193	H	0.741666	0.384285	0.23132
194	H	0.783284	0.411595	0.414421
195	H	0.827137	0.448892	0.414852
196	H	0.87421	0.466732	0.471285
197	H	0.893786	0.408464	0.189318
198	H	0.941809	0.428671	0.208635
199	H	0.966262	0.476532	0.629634
200	H	0.010238	0.504905	0.685082
201	H	0.038142	0.523647	0.416479
202	H	0.056102	0.5697	0.068104
203	H	0.103766	0.58807	0.100495
204	H	0.115955	0.518547	0.188423
205	H	0.163456	0.536296	0.184933
206	H	0.206848	0.568053	0.275494
207	H	0.252093	0.601301	0.185546
208	H	0.029332	0.520272	0.726508
209	H	0.985223	0.492622	0.670763
210	H	0.957282	0.473889	0.939106
