data_C96H48N12O6S12_2023-05-11_11:54:07
#******************************************
#
# CIF file created by Zeo++
# Zeo++ is an open source package to
# analyze microporous materials
#
#*******************************************

_cell_length_a		51.5539   
_cell_length_b		51.8523   
_cell_length_c		7   
_cell_angle_alpha		90   
_cell_angle_beta		90   
_cell_angle_gamma		119.749   

_symmetry_space_group_name_H-M		'P1'
_symmetry_Int_Tables_number		1
_symmetry_cell_setting		Monoclinic

loop_
_symmetry_equiv_pos_as_xyz
'+x,+y,+z'

loop_
_atom_site_label
_atom_site_type_symbol
_atom_site_fract_x
_atom_site_fract_y
_atom_site_fract_z
1	C	0.363398	0.672952	0.999995
2	O	0.389756	0.677574	0.999991
3	C	0.339572	0.642065	0.999998
4	C	0.3442	0.619298	0
5	N	0.373705	0.624622	0
6	C	0.30909	0.636582	3e-06
7	O	0.287677	0.609961	5e-06
8	C	0.301766	0.660337	6e-06
9	C	0.273715	0.654604	5e-06
10	N	0.250531	0.624315	0
11	C	0.326738	0.690977	4e-06
12	O	0.320918	0.711519	7e-06
13	C	0.357711	0.697836	0.999999
14	C	0.379725	0.725789	0.999998
15	N	0.3753	0.750603	0
16	H	0.325961	0.597135	1e-06
17	H	0.267797	0.671619	8e-06
18	H	0.401992	0.729781	0.999997
19	C	0.636602	0.327048	0.999995
20	O	0.610244	0.322426	0.999991
21	C	0.660428	0.357935	0.999998
22	C	0.6558	0.380702	0
23	N	0.626295	0.375378	0
24	C	0.69091	0.363418	3e-06
25	O	0.712323	0.390039	5e-06
26	C	0.698234	0.339663	6e-06
27	C	0.726285	0.345396	5e-06
28	N	0.749469	0.375685	0
29	C	0.673262	0.309023	4e-06
30	O	0.679082	0.288481	7e-06
31	C	0.642289	0.302164	0.999999
32	C	0.620275	0.274211	0.999998
33	N	0.6247	0.249397	0
34	H	0.674039	0.402865	1e-06
35	H	0.732203	0.328381	8e-06
36	H	0.598008	0.270219	0.999997
37	C	0.608286	0.393148	0
38	C	0.592891	0.408338	0.015834
39	C	0.588248	0.412933	0.211401
40	C	0.5714	0.429562	0.282048
41	C	0.56699	0.43393	0.470255
42	C	0.550984	0.449726	0.489528
43	C	0.543415	0.457178	0.316062
44	C	0.526957	0.473416	0.278129
45	C	0.521002	0.479296	0.093502
46	C	0.505559	0.494533	0.070167
47	N	0.495715	0.504242	0.216144
48	C	0.501092	0.498932	0.397638
49	C	0.48955	0.510317	0.552994
50	C	0.493029	0.506882	0.747385
51	C	0.481459	0.518297	0.881783
52	C	0.466585	0.532974	0.820524
53	C	0.463666	0.535856	0.625694
54	C	0.448185	0.551132	0.548863
55	C	0.434541	0.564597	0.645091
56	C	0.421822	0.577147	0.520267
57	C	0.426002	0.57302	0.33103
58	C	0.414564	0.584305	0.158768
59	C	0.419061	0.579866	0.969901
60	S	0.404057	0.594671	0.815759
61	C	0.391714	0.606852	0
62	C	0.398533	0.600125	0.175932
63	S	0.44507	0.554204	0.305884
64	N	0.474916	0.524757	0.495306
65	C	0.516637	0.483593	0.430688
66	S	0.556312	0.444434	0.132071
67	C	0.600433	0.400922	0.333931
68	S	0.617248	0.384324	0.2135
69	H	0.585359	0.41576	0.894189
70	H	0.574653	0.42638	0.590519
71	H	0.545471	0.455179	0.627336
72	H	0.527993	0.472403	0.96659
73	H	0.500514	0.499514	0.928808
74	H	0.504529	0.495536	0.798679
75	H	0.484045	0.515744	0.033508
76	H	0.457602	0.541836	0.925186
77	H	0.433521	0.565605	0.799172
78	H	0.410283	0.588534	0.56973
79	H	0.43038	0.568697	0.912999
80	H	0.392376	0.606201	0.309261
81	H	0.520811	0.479469	0.575795
82	H	0.600513	0.400855	0.488274
83	C	0.606342	0.21355	0
84	C	0.591181	0.18317	0.015834
85	C	0.586593	0.173993	0.211401
86	C	0.569996	0.140739	0.282048
87	C	0.565636	0.13202	0.470255
88	C	0.54987	0.10043	0.489528
89	C	0.542431	0.085509	0.316062
90	C	0.526223	0.05303	0.278129
91	C	0.520354	0.041274	0.093502
92	C	0.505146	0.010799	0.070167
93	N	0.495456	0.991377	0.216144
94	C	0.500755	0.001992	0.397638
95	C	0.489391	0.979218	0.552994
96	C	0.49282	0.986086	0.747385
97	C	0.481427	0.963255	0.881783
98	C	0.466777	0.9339	0.820524
99	C	0.4639	0.928137	0.625694
100	C	0.448653	0.897586	0.548863
101	C	0.435213	0.870659	0.645091
102	C	0.422686	0.845557	0.520267
103	C	0.426806	0.853809	0.33103
104	C	0.415541	0.831237	0.158768
105	C	0.419972	0.840114	0.969901
106	S	0.405195	0.810504	0.815759
107	C	0.393037	0.786143	0
108	C	0.399751	0.799599	0.175932
109	S	0.445586	0.89144	0.305884
110	N	0.474978	0.950337	0.495306
111	C	0.516065	0.03267	0.430688
112	S	0.555151	0.110978	0.132071
113	C	0.598582	0.198027	0.333931
114	S	0.61515	0.231218	0.2135
115	H	0.583772	0.168315	0.894189
116	H	0.573171	0.14713	0.590519
117	H	0.544426	0.089536	0.627336
118	H	0.527235	0.055066	0.96659
119	H	0.500174	0.00084	0.928808
120	H	0.504145	0.00878	0.798679
121	H	0.483975	0.968359	0.033508
122	H	0.457931	0.916174	0.925186
123	H	0.434207	0.868644	0.799172
124	H	0.41132	0.822783	0.56973
125	H	0.43112	0.862451	0.912999
126	H	0.393686	0.787447	0.309261
127	H	0.520182	0.040913	0.575795
128	H	0.598649	0.198174	0.488274
129	C	0.784908	0.392841	0
130	C	0.815464	0.408032	0.015834
131	C	0.824694	0.412613	0.211401
132	C	0.85814	0.429238	0.282048
133	C	0.866909	0.43359	0.470255
134	C	0.898682	0.449384	0.489528
135	C	0.91369	0.456853	0.316062
136	C	0.946356	0.473093	0.278129
137	C	0.95818	0.478969	0.093502
138	C	0.988831	0.494207	0.070167
139	N	0.008365	0.503921	0.216144
140	C	0.997689	0.498616	0.397638
141	C	0.020594	0.510004	0.552994
142	C	0.013687	0.506571	0.747385
143	C	0.03665	0.517988	0.881783
144	C	0.066174	0.532665	0.820524
145	C	0.071971	0.535546	0.625694
146	C	0.102698	0.550821	0.548863
147	C	0.129781	0.564284	0.645091
148	C	0.155028	0.576835	0.520267
149	C	0.146728	0.57271	0.33103
150	C	0.169431	0.583997	0.158768
151	C	0.160503	0.57956	0.969901
152	S	0.190284	0.594365	0.815759
153	C	0.214785	0.606545	0
154	C	0.201252	0.599816	0.175932
155	S	0.10888	0.553895	0.305884
156	N	0.049643	0.524445	0.495306
157	C	0.966834	0.483276	0.430688
158	S	0.888073	0.444127	0.132071
159	C	0.800521	0.400591	0.333931
160	S	0.767139	0.383998	0.2135
161	H	0.830405	0.415465	0.894189
162	H	0.851712	0.426029	0.590519
163	H	0.909639	0.454824	0.627336
164	H	0.944308	0.47207	0.96659
165	H	0.998847	0.499185	0.928808
166	H	0.990862	0.495224	0.798679
167	H	0.031516	0.515437	0.033508
168	H	0.084003	0.541529	0.925186
169	H	0.131808	0.565291	0.799172
170	H	0.177933	0.588222	0.56973
171	H	0.138036	0.568391	0.912999
172	H	0.213474	0.605891	0.309261
173	H	0.958543	0.479157	0.575795
174	H	0.800373	0.400511	0.488274
