data_C60H36N6O6S6_2023-05-11_09:41:13
#******************************************
#
# CIF file created by Zeo++
# Zeo++ is an open source package to
# analyze microporous materials
#
#*******************************************

_cell_length_a		34.6097   
_cell_length_b		34.9083   
_cell_length_c		7   
_cell_angle_alpha		90   
_cell_angle_beta		90   
_cell_angle_gamma		119.626   

_symmetry_space_group_name_H-M		'P1'
_symmetry_Int_Tables_number		1
_symmetry_cell_setting		Monoclinic

loop_
_symmetry_equiv_pos_as_xyz
'+x,+y,+z'

loop_
_atom_site_label
_atom_site_type_symbol
_atom_site_fract_x
_atom_site_fract_y
_atom_site_fract_z
1	C	0.378093	0.675992	0.999995
2	O	0.417339	0.682849	0.999991
3	C	0.342717	0.630168	0.999998
4	C	0.349694	0.596392	0
5	N	0.393624	0.60429	0
6	C	0.297331	0.622034	3e-06
7	O	0.265533	0.582539	5e-06
8	C	0.286334	0.657276	6e-06
9	C	0.244571	0.648771	5e-06
10	N	0.210148	0.603834	0
11	C	0.323419	0.702733	4e-06
12	O	0.314674	0.733209	7e-06
13	C	0.369531	0.712909	0.999999
14	C	0.40222	0.75438	0.999998
15	N	0.395537	0.791192	0
16	H	0.322606	0.56351	1e-06
17	H	0.235693	0.674014	8e-06
18	H	0.435373	0.760302	0.999997
19	C	0.621907	0.324008	0.999995
20	O	0.582661	0.317151	0.999991
21	C	0.657283	0.369832	0.999998
22	C	0.650306	0.403608	0
23	N	0.606376	0.39571	0
24	C	0.702669	0.377966	3e-06
25	O	0.734467	0.417461	5e-06
26	C	0.713666	0.342724	6e-06
27	C	0.755429	0.351229	5e-06
28	N	0.789852	0.396166	0
29	C	0.676581	0.297267	4e-06
30	O	0.685326	0.266791	7e-06
31	C	0.630469	0.287091	0.999999
32	C	0.59778	0.24562	0.999998
33	N	0.604463	0.208808	0
34	H	0.677394	0.43649	1e-06
35	H	0.764307	0.325986	8e-06
36	H	0.564627	0.239698	0.999997
37	C	0.420515	0.577926	0
38	C	0.404608	0.606557	0.040758
39	S	0.411246	0.611844	0.285222
40	C	0.43311	0.578538	0.323563
41	C	0.445022	0.566186	0.510756
42	C	0.465174	0.544139	0.525687
43	C	0.486862	0.52041	0.541761
44	C	0.50118	0.506301	0.38413
45	C	0.522092	0.483259	0.404715
46	C	0.542747	0.460514	0.424165
47	C	0.56051	0.442885	0.284377
48	C	0.557886	0.439948	0.089399
49	C	0.579485	0.422074	0
50	C	0.602675	0.407954	0.10847
51	S	0.593706	0.420034	0.334102
52	C	0.434871	0.564077	0.146596
53	H	0.391535	0.621394	0.943047
54	H	0.434966	0.578969	0.636039
55	H	0.457769	0.541403	0.723289
56	H	0.496574	0.509548	0.671943
57	H	0.492186	0.517078	0.253012
58	H	0.536897	0.488962	0.212513
59	H	0.547123	0.454299	0.576753
60	H	0.538178	0.452158	0.01064
61	H	0.622141	0.392146	0.063798
62	H	0.447548	0.540742	0.12849
63	C	0.421827	0.84392	0
64	C	0.393177	0.799792	0.040758
65	S	0.387814	0.801102	0.285222
66	C	0.421118	0.855754	0.323563
67	C	0.43344	0.879778	0.510756
68	C	0.455444	0.921565	0.525687
69	C	0.479125	0.966539	0.541761
70	C	0.493196	0.994685	0.38413
71	C	0.516193	0.038209	0.404715
72	C	0.538894	0.081186	0.424165
73	C	0.556475	0.116227	0.284377
74	C	0.559447	0.116551	0.089399
75	C	0.577246	0.155625	0
76	C	0.59126	0.192545	0.10847
77	S	0.579189	0.171696	0.334102
78	C	0.435637	0.871846	0.146596
79	H	0.378366	0.772154	0.943047
80	H	0.420671	0.857159	0.636039
81	H	0.458248	0.916966	0.723289
82	H	0.489968	0.986912	0.671943
83	H	0.482434	0.975105	0.253012
84	H	0.510352	0.047173	0.212513
85	H	0.545106	0.091676	0.576753
86	H	0.547325	0.084965	0.01064
87	H	0.606999	0.227461	0.063798
88	H	0.45899	0.907528	0.12849
89	C	0.156967	0.577471	0
90	C	0.201525	0.592968	0.040758
91	S	0.200249	0.586372	0.285222
92	C	0.145081	0.565026	0.323563
93	C	0.120847	0.553353	0.510756
94	C	0.078692	0.533613	0.525687
95	C	0.033322	0.512368	0.541761
96	C	0.004933	0.498331	0.38413
97	C	0.961025	0.477849	0.404715
98	C	0.917668	0.457617	0.424165
99	C	0.882324	0.440205	0.284377
100	C	0.881977	0.442818	0.089399
101	C	0.842579	0.421618	0
102	C	0.805375	0.398818	0.10847
103	S	0.826415	0.407587	0.334102
104	C	0.128802	0.563395	0.146596
105	H	0.229408	0.605769	0.943047
106	H	0.143673	0.56319	0.636039
107	H	0.083293	0.540948	0.723289
108	H	0.012768	0.502857	0.671943
109	H	0.024689	0.507134	0.253012
110	H	0.952061	0.463182	0.212513
111	H	0.907081	0.453342	0.576753
112	H	0.913807	0.462193	0.01064
113	H	0.77017	0.37971	0.063798
114	H	0.092771	0.551048	0.12849
