data_C54H24N12O6S6_2023-05-12_14:10:03
#******************************************
#
# CIF file created by Zeo++
# Zeo++ is an open source package to
# analyze microporous materials
#
#*******************************************

_cell_length_a		35.5735   
_cell_length_b		35.8721   
_cell_length_c		7   
_cell_angle_alpha		90   
_cell_angle_beta		90   
_cell_angle_gamma		119.636   

_symmetry_space_group_name_H-M		'P1'
_symmetry_Int_Tables_number		1
_symmetry_cell_setting		Monoclinic

loop_
_symmetry_equiv_pos_as_xyz
'+x,+y,+z'

loop_
_atom_site_label
_atom_site_type_symbol
_atom_site_fract_x
_atom_site_fract_y
_atom_site_fract_z
1	C	0.376882	0.675742	0.999995
2	O	0.415066	0.682416	0.999991
3	C	0.342455	0.631145	0.999998
4	C	0.349237	0.598273	0
5	N	0.391978	0.60596	0
6	C	0.298297	0.623229	3e-06
7	O	0.267353	0.584791	5e-06
8	C	0.287605	0.657527	6e-06
9	C	0.246972	0.64925	5e-06
10	N	0.213473	0.605516	0
11	C	0.323695	0.701768	4e-06
12	O	0.315192	0.731428	7e-06
13	C	0.368559	0.711672	0.999999
14	C	0.400371	0.752032	0.999998
15	N	0.393876	0.787859	0
16	H	0.322877	0.566272	1e-06
17	H	0.23834	0.673817	8e-06
18	H	0.432628	0.757795	0.999997
19	C	0.623118	0.324258	0.999995
20	O	0.584934	0.317584	0.999991
21	C	0.657545	0.368855	0.999998
22	C	0.650763	0.401727	0
23	N	0.608022	0.39404	0
24	C	0.701703	0.376771	3e-06
25	O	0.732647	0.415209	5e-06
26	C	0.712395	0.342473	6e-06
27	C	0.753028	0.35075	5e-06
28	N	0.786527	0.394484	0
29	C	0.676305	0.298232	4e-06
30	O	0.684808	0.268572	7e-06
31	C	0.631441	0.288328	0.999999
32	C	0.599629	0.247968	0.999998
33	N	0.606124	0.212141	0
34	H	0.677123	0.433728	1e-06
35	H	0.76166	0.326183	8e-06
36	H	0.567372	0.242205	0.999997
37	C	0.418136	0.580302	0
38	C	0.439971	0.558884	0.955981
39	C	0.453569	0.545548	0.124063
40	C	0.477497	0.522076	0.125643
41	C	0.490113	0.509703	0.290987
42	N	0.512347	0.487891	0.289948
43	C	0.52202	0.478399	0.115628
44	C	0.54595	0.454927	0.111477
45	C	0.558098	0.443015	0.278799
46	S	0.585727	0.415913	0.239071
47	C	0.581864	0.419698	0
48	C	0.560221	0.440928	0.948082
49	C	0.509413	0.490763	0.950322
50	N	0.487187	0.512567	0.95135
51	C	0.440744	0.558126	0.28719
52	S	0.413246	0.585099	0.237675
53	H	0.446274	0.5527	0.811233
54	H	0.482987	0.516698	0.43267
55	H	0.552085	0.448918	0.424273
56	H	0.554952	0.446096	0.800429
57	H	0.516611	0.4837	0.808867
58	H	0.445651	0.553312	0.435512
59	C	0.419465	0.839175	0
60	C	0.440824	0.882011	0.955981
61	C	0.454125	0.908686	0.124063
62	C	0.477533	0.95563	0.125643
63	C	0.489872	0.980377	0.290987
64	N	0.511625	0.023999	0.289948
65	C	0.521092	0.04298	0.115628
66	C	0.5445	0.089925	0.111477
67	C	0.55638	0.113753	0.278799
68	S	0.583408	0.167957	0.239071
69	C	0.579633	0.160382	0
70	C	0.558461	0.117923	0.948082
71	C	0.508761	0.01825	0.950322
72	N	0.487016	0.974643	0.95135
73	C	0.44158	0.883528	0.28719
74	S	0.41468	0.829581	0.237675
75	H	0.446992	0.894379	0.811233
76	H	0.482896	0.966393	0.43267
77	H	0.550493	0.101952	0.424273
78	H	0.553308	0.107586	0.800429
79	H	0.515805	0.032374	0.808867
80	H	0.446381	0.893154	0.435512
81	C	0.161728	0.579858	0
82	C	0.118533	0.55844	0.955981
83	C	0.091635	0.545102	0.124063
84	C	0.044298	0.52163	0.125643
85	C	0.019343	0.509255	0.290987
86	N	0.975356	0.487445	0.289948
87	C	0.956216	0.477957	0.115628
88	C	0.908878	0.454484	0.111477
89	C	0.88485	0.442567	0.278799
90	S	0.830193	0.415465	0.239071
91	C	0.83783	0.419255	0
92	C	0.880645	0.440485	0.948082
93	C	0.981153	0.490323	0.950322
94	N	0.025126	0.512125	0.95135
95	C	0.117004	0.557682	0.28719
96	S	0.171402	0.584655	0.237675
97	H	0.106062	0.552257	0.811233
98	H	0.033445	0.516244	0.43267
99	H	0.896751	0.448466	0.424273
100	H	0.891068	0.445653	0.800429
101	H	0.966911	0.483262	0.808867
102	H	0.107296	0.552869	0.435512
