data_C78H36N12O6S6_2023-05-29_22:23:19
#******************************************
#
# CIF file created by Zeo++
# Zeo++ is an open source package to
# analyze microporous materials
#
#*******************************************

_cell_length_a		35.0112   
_cell_length_b		35.3098   
_cell_length_c		7   
_cell_angle_alpha		90   
_cell_angle_beta		90   
_cell_angle_gamma		119.631   

_symmetry_space_group_name_H-M		'P1'
_symmetry_Int_Tables_number		1
_symmetry_cell_setting		Monoclinic

loop_
_symmetry_equiv_pos_as_xyz
'+x,+y,+z'

loop_
_atom_site_label
_atom_site_type_symbol
_atom_site_fract_x
_atom_site_fract_y
_atom_site_fract_z
1	C	0.377581	0.675886	0.999995
2	O	0.416377	0.682666	0.999991
3	C	0.342606	0.630581	0.999998
4	C	0.3495	0.597188	0
5	N	0.392927	0.604997	0
6	C	0.29774	0.62254	3e-06
7	O	0.266303	0.583492	5e-06
8	C	0.286872	0.657382	6e-06
9	C	0.245587	0.648974	5e-06
10	N	0.211556	0.604546	0
11	C	0.323536	0.702325	4e-06
12	O	0.314893	0.732455	7e-06
13	C	0.36912	0.712386	0.999999
14	C	0.401437	0.753386	0.999998
15	N	0.394834	0.789782	0
16	H	0.322721	0.564679	1e-06
17	H	0.236813	0.67393	8e-06
18	H	0.434211	0.759241	0.999997
19	C	0.622419	0.324114	0.999995
20	O	0.583623	0.317334	0.999991
21	C	0.657394	0.369419	0.999998
22	C	0.6505	0.402812	0
23	N	0.607073	0.395003	0
24	C	0.70226	0.37746	3e-06
25	O	0.733697	0.416508	5e-06
26	C	0.713128	0.342618	6e-06
27	C	0.754413	0.351026	5e-06
28	N	0.788444	0.395454	0
29	C	0.676464	0.297675	4e-06
30	O	0.685107	0.267545	7e-06
31	C	0.63088	0.287614	0.999999
32	C	0.598563	0.246614	0.999998
33	N	0.605166	0.210218	0
34	H	0.677279	0.435321	1e-06
35	H	0.763187	0.32607	8e-06
36	H	0.565789	0.240759	0.999997
37	C	0.580492	0.421068	0
38	C	0.62239	0.455715	0.01299
39	S	0.628219	0.486998	0.209635
40	C	0.574454	0.453937	0.275346
41	C	0.557579	0.464228	0.447762
42	C	0.534138	0.487519	0.441016
43	C	0.526058	0.503152	0.269779
44	C	0.502998	0.525765	0.269779
45	C	0.487114	0.533632	0.441016
46	C	0.463365	0.556617	0.447761
47	C	0.452823	0.57321	0.275345
48	C	0.41821	0.551378	0.14996
49	C	0.419508	0.578932	0
50	C	0.454266	0.620579	0.012989
51	S	0.485889	0.62657	0.209633
52	C	0.448584	0.563439	0.622326
53	C	0.457799	0.54743	0.783973
54	N	0.480126	0.525489	0.782004
55	C	0.495071	0.518232	0.614866
56	C	0.518491	0.495266	0.614866
57	N	0.525948	0.480555	0.782004
58	C	0.548321	0.458662	0.783973
59	C	0.564595	0.449677	0.622327
60	C	0.552611	0.419582	0.14996
61	H	0.649885	0.46437	0.918236
62	H	0.53783	0.498121	0.133471
63	H	0.497818	0.537358	0.133471
64	H	0.39352	0.517408	0.166512
65	H	0.462823	0.647805	0.918236
66	H	0.430329	0.5808	0.632215
67	H	0.447227	0.551751	0.924191
68	H	0.552773	0.44825	0.924192
69	H	0.582302	0.431772	0.632216
70	H	0.518411	0.394939	0.166512
71	C	0.578256	0.157638	0
72	C	0.543133	0.164639	0.01299
73	S	0.511655	0.139347	0.209635
74	C	0.545274	0.119048	0.275346
75	C	0.535059	0.092163	0.447762
76	C	0.511829	0.045888	0.441016
77	C	0.496181	0.022388	0.269779
78	C	0.47363	0.977163	0.269779
79	C	0.465844	0.953663	0.441016
80	C	0.442925	0.907387	0.447761
81	C	0.426329	0.880503	0.275345
82	C	0.448524	0.86798	0.14996
83	C	0.420827	0.841912	0
84	C	0.378722	0.834911	0.012989
85	S	0.372468	0.860204	0.209633
86	C	0.436179	0.886013	0.622326
87	C	0.452197	0.911008	0.783973
88	N	0.474077	0.954841	0.782004
89	C	0.481258	0.976809	0.614866
90	C	0.504162	0.022742	0.614866
91	N	0.518888	0.044709	0.782004
92	C	0.540721	0.088543	0.783973
93	C	0.549628	0.113537	0.622327
94	C	0.579957	0.131571	0.14996
95	H	0.534231	0.18321	0.918236
96	H	0.501149	0.039012	0.133471
97	H	0.462021	0.960539	0.133471
98	H	0.482839	0.877306	0.166512
99	H	0.351302	0.81634	0.918236
100	H	0.41887	0.850748	0.632215
101	H	0.447934	0.896275	0.924191
102	H	0.55115	0.103276	0.924192
103	H	0.567488	0.148803	0.632216
104	H	0.604972	0.122245	0.166512
105	C	0.840569	0.420618	0
106	C	0.833795	0.378971	0.01299
107	S	0.859443	0.37298	0.209635
108	C	0.87959	0.42634	0.275346
109	C	0.90668	0.442933	0.447762
110	C	0.95335	0.465918	0.441016
111	C	0.977079	0.473784	0.269779
112	C	0.022689	0.496397	0.269779
113	C	0.04636	0.51203	0.441016
114	C	0.093028	0.535321	0.447761
115	C	0.120165	0.545612	0.275345
116	C	0.132583	0.579967	0.14996
117	C	0.158982	0.578481	0
118	C	0.166329	0.543835	0.012989
119	S	0.140961	0.512551	0.209633
120	C	0.114555	0.549872	0.622326
121	C	0.089321	0.540887	0.783973
122	N	0.045114	0.518994	0.782004
123	C	0.022988	0.504283	0.614866
124	C	0.976664	0.481317	0.614866
125	N	0.954482	0.47406	0.782004
126	C	0.910275	0.45212	0.783973
127	C	0.885095	0.436111	0.622327
128	C	0.866749	0.448172	0.14996
129	H	0.815201	0.351745	0.918236
130	H	0.960338	0.462192	0.133471
131	H	0.039479	0.501428	0.133471
132	H	0.122958	0.60461	0.166512
133	H	0.185193	0.53518	0.918236
134	H	0.150118	0.567777	0.632215
135	H	0.104157	0.551299	0.924191
136	H	0.895395	0.447799	0.924192
137	H	0.849527	0.41875	0.632216
138	H	0.875935	0.482141	0.166512
