data_C60H36N12O6_2023-05-29_20:18:53
#******************************************
#
# CIF file created by Zeo++
# Zeo++ is an open source package to
# analyze microporous materials
#
#*******************************************

_cell_length_a		35.4968   
_cell_length_b		35.7955   
_cell_length_c		7   
_cell_angle_alpha		90   
_cell_angle_beta		90   
_cell_angle_gamma		119.636   

_symmetry_space_group_name_H-M		'P1'
_symmetry_Int_Tables_number		1
_symmetry_cell_setting		Monoclinic

loop_
_symmetry_equiv_pos_as_xyz
'+x,+y,+z'

loop_
_atom_site_label
_atom_site_type_symbol
_atom_site_fract_x
_atom_site_fract_y
_atom_site_fract_z
1	C	0.376976	0.675762	0.999995
2	O	0.415242	0.682449	0.999991
3	C	0.342475	0.631069	0.999998
4	C	0.349272	0.598127	0
5	N	0.392106	0.60583	0
6	C	0.298223	0.623136	3e-06
7	O	0.267212	0.584616	5e-06
8	C	0.287507	0.657508	6e-06
9	C	0.246786	0.649213	5e-06
10	N	0.213216	0.605386	0
11	C	0.323674	0.701843	4e-06
12	O	0.315152	0.731566	7e-06
13	C	0.368635	0.711768	0.999999
14	C	0.400514	0.752214	0.999998
15	N	0.394005	0.788117	0
16	H	0.322856	0.566058	1e-06
17	H	0.238135	0.673832	8e-06
18	H	0.43284	0.757989	0.999997
19	C	0.623024	0.324238	0.999995
20	O	0.584758	0.317551	0.999991
21	C	0.657525	0.368931	0.999998
22	C	0.650728	0.401873	0
23	N	0.607894	0.39417	0
24	C	0.701777	0.376864	3e-06
25	O	0.732788	0.415384	5e-06
26	C	0.712493	0.342492	6e-06
27	C	0.753214	0.350787	5e-06
28	N	0.786784	0.394614	0
29	C	0.676326	0.298157	4e-06
30	O	0.684848	0.268434	7e-06
31	C	0.631365	0.288232	0.999999
32	C	0.599486	0.247786	0.999998
33	N	0.605995	0.211883	0
34	H	0.677144	0.433942	1e-06
35	H	0.761865	0.326168	8e-06
36	H	0.56716	0.242011	0.999997
37	C	0.58168	0.419882	0
38	C	0.560811	0.440377	0.941571
39	C	0.54628	0.454587	0.106533
40	C	0.522155	0.478258	0.110455
41	C	0.50949	0.490684	0.945218
42	N	0.487217	0.51254	0.945623
43	C	0.47741	0.522163	0.119468
44	C	0.453278	0.545841	0.119125
45	C	0.439994	0.558911	0.273172
46	C	0.416314	0.582134	0.212637
47	C	0.41832	0.580118	0
48	C	0.439433	0.559389	0.949415
49	C	0.490077	0.509733	0.284737
50	N	0.512352	0.487875	0.28441
51	C	0.558878	0.44218	0.264853
52	C	0.582754	0.418767	0.213355
53	H	0.555569	0.445565	0.794453
54	H	0.516753	0.483555	0.803933
55	H	0.444832	0.554198	0.421531
56	H	0.433025	0.615275	0.265042
57	H	0.382908	0.565398	0.26519
58	H	0.445791	0.553117	0.805431
59	H	0.48282	0.516851	0.426026
60	H	0.552886	0.448015	0.410311
61	H	0.615922	0.435739	0.268635
62	H	0.565798	0.385856	0.268449
63	C	0.579448	0.160014	0
64	C	0.559009	0.119049	0.941571
65	C	0.544838	0.090587	0.106533
66	C	0.521231	0.043251	0.110455
67	C	0.508839	0.018403	0.945218
68	N	0.487042	0.9747	0.945623
69	C	0.477445	0.955457	0.119468
70	C	0.453831	0.908109	0.119125
71	C	0.440796	0.882009	0.273172
72	C	0.417636	0.835559	0.212637
73	C	0.419648	0.839543	0
74	C	0.44032	0.880981	0.949415
75	C	0.489841	0.980311	0.284737
76	N	0.51164	0.024019	0.28441
77	C	0.557212	0.11535	0.264853
78	C	0.580561	0.162181	0.213355
79	H	0.553835	0.10872	0.794453
80	H	0.515948	0.032656	0.803933
81	H	0.445496	0.891468	0.421531
82	H	0.384216	0.819172	0.265042
83	H	0.434697	0.819166	0.26519
84	H	0.446575	0.893488	0.805431
85	H	0.482743	0.966076	0.426026
86	H	0.551393	0.103636	0.410311
87	H	0.563266	0.178105	0.268635
88	H	0.613752	0.178099	0.268449
89	C	0.838198	0.419438	0
90	C	0.879506	0.439907	0.941571
91	C	0.908208	0.454161	0.106533
92	C	0.955941	0.477825	0.110455
93	C	0.980998	0.490247	0.945218
94	N	0.025067	0.512094	0.945623
95	C	0.044472	0.521714	0.119468
96	C	0.092217	0.545384	0.119125
97	C	0.118537	0.558414	0.273172
98	C	0.165376	0.581641	0.212637
99	C	0.161359	0.579673	0
100	C	0.119573	0.558964	0.949415
101	C	0.019409	0.509289	0.284737
102	N	0.975335	0.48744	0.28441
103	C	0.883237	0.441804	0.264853
104	C	0.836012	0.418385	0.213355
105	H	0.889923	0.445049	0.794453
106	H	0.966625	0.483123	0.803933
107	H	0.108999	0.553668	0.421531
108	H	0.182085	0.564886	0.265042
109	H	0.181722	0.61477	0.26519
110	H	0.106961	0.552728	0.805431
111	H	0.033764	0.516407	0.426026
112	H	0.895048	0.447682	0.410311
113	H	0.820139	0.385489	0.268635
114	H	0.819777	0.435379	0.268449
