data_C96H48N6O6S12_2023-05-13_01:42:02
#******************************************
#
# CIF file created by Zeo++
# Zeo++ is an open source package to
# analyze microporous materials
#
#*******************************************

_cell_length_a		52.9613   
_cell_length_b		53.2597   
_cell_length_c		7   
_cell_angle_alpha		90   
_cell_angle_beta		90   
_cell_angle_gamma		119.755   

_symmetry_space_group_name_H-M		'P1'
_symmetry_Int_Tables_number		1
_symmetry_cell_setting		Monoclinic

loop_
_symmetry_equiv_pos_as_xyz
'+x,+y,+z'

loop_
_atom_site_label
_atom_site_type_symbol
_atom_site_fract_x
_atom_site_fract_y
_atom_site_fract_z
1	C	0.3626	0.672787	0.999995
2	O	0.388258	0.677287	0.999991
3	C	0.339403	0.642713	0.999998
4	C	0.343905	0.620547	0
5	N	0.372627	0.62573	0
6	C	0.30973	0.637375	3e-06
7	O	0.288883	0.611455	5e-06
8	C	0.302604	0.660504	6e-06
9	C	0.275298	0.654922	5e-06
10	N	0.252726	0.625431	0
11	C	0.326916	0.690336	4e-06
12	O	0.321253	0.710337	7e-06
13	C	0.357067	0.697015	0.999999
14	C	0.3785	0.724231	0.999998
15	N	0.374196	0.74839	0
16	H	0.326148	0.598968	1e-06
17	H	0.269539	0.671488	8e-06
18	H	0.400176	0.728117	0.999997
19	C	0.6374	0.327213	0.999995
20	O	0.611742	0.322713	0.999991
21	C	0.660597	0.357287	0.999998
22	C	0.656095	0.379453	0
23	N	0.627373	0.37427	0
24	C	0.69027	0.362625	3e-06
25	O	0.711117	0.388545	5e-06
26	C	0.697396	0.339496	6e-06
27	C	0.724702	0.345078	5e-06
28	N	0.747274	0.374569	0
29	C	0.673084	0.309664	4e-06
30	O	0.678747	0.289663	7e-06
31	C	0.642933	0.302985	0.999999
32	C	0.6215	0.275769	0.999998
33	N	0.625804	0.25161	0
34	H	0.673852	0.401032	1e-06
35	H	0.730461	0.328512	8e-06
36	H	0.599824	0.271883	0.999997
37	C	0.390155	0.608428	0
38	C	0.405046	0.593728	0.026691
39	C	0.412702	0.586175	0.848462
40	C	0.429885	0.569214	0.825622
41	C	0.437199	0.561999	0.65394
42	C	0.452728	0.546671	0.679024
43	C	0.457043	0.542408	0.869109
44	C	0.472065	0.527577	0.950774
45	C	0.474754	0.524924	0.148154
46	C	0.489041	0.510821	0.221266
47	C	0.50119	0.498828	0.09917
48	C	0.515635	0.484568	0.170387
49	C	0.527937	0.472425	0.049227
50	C	0.54296	0.457595	0.130892
51	C	0.547277	0.453333	0.320977
52	C	0.562805	0.438005	0.34606
53	C	0.570117	0.430788	0.174379
54	C	0.587299	0.413827	0.151539
55	C	0.596846	0.404404	0.304534
56	S	0.614822	0.386659	0.232989
57	C	0.609845	0.391572	0
58	C	0.594954	0.406271	0.973309
59	S	0.558267	0.442485	0.986604
60	C	0.525248	0.475078	0.851847
61	C	0.510961	0.489181	0.778735
62	C	0.498812	0.501174	0.900831
63	C	0.484366	0.515434	0.829615
64	S	0.441733	0.557515	0.013397
65	C	0.403158	0.5956	0.695466
66	S	0.385181	0.613343	0.767011
67	H	0.41019	0.588647	0.166046
68	H	0.431925	0.567209	0.515493
69	H	0.460281	0.539219	0.55981
70	H	0.465827	0.533737	0.250924
71	H	0.490531	0.50935	0.375487
72	H	0.517107	0.483115	0.324476
73	H	0.539725	0.460787	0.440191
74	H	0.568081	0.432797	0.484507
75	H	0.594357	0.40686	0.455435
76	H	0.589808	0.411351	0.833954
77	H	0.534175	0.466265	0.749078
78	H	0.509471	0.490652	0.624514
79	H	0.482894	0.516886	0.675525
80	H	0.405648	0.593145	0.544565
81	C	0.391466	0.782994	0
82	C	0.406139	0.812393	0.026691
83	C	0.413679	0.827504	0.848462
84	C	0.430609	0.861426	0.825622
85	C	0.437811	0.875861	0.65394
86	C	0.453111	0.906517	0.679024
87	C	0.457367	0.91504	0.869109
88	C	0.47217	0.944699	0.950774
89	C	0.474819	0.950007	0.148154
90	C	0.488896	0.978212	0.221266
91	C	0.500868	0.002197	0.09917
92	C	0.515102	0.030717	0.170387
93	C	0.527223	0.055002	0.049227
94	C	0.542026	0.084662	0.130892
95	C	0.546279	0.093184	0.320977
96	C	0.56158	0.12384	0.34606
97	C	0.568784	0.138275	0.174379
98	C	0.585714	0.172197	0.151539
99	C	0.59512	0.191044	0.304534
100	S	0.612832	0.226532	0.232989
101	C	0.607929	0.216708	0
102	C	0.593256	0.187308	0.973309
103	S	0.557108	0.114881	0.986604
104	C	0.524574	0.049695	0.851847
105	C	0.510497	0.02149	0.778735
106	C	0.498526	0.997504	0.900831
107	C	0.484292	0.968985	0.829615
108	S	0.442287	0.884821	0.013397
109	C	0.404271	0.808658	0.695466
110	S	0.38656	0.773169	0.767011
111	H	0.411211	0.822552	0.166046
112	H	0.432611	0.865444	0.515493
113	H	0.46055	0.921426	0.55981
114	H	0.466022	0.932381	0.250924
115	H	0.490364	0.981154	0.375487
116	H	0.516552	0.033622	0.324476
117	H	0.538839	0.078276	0.440191
118	H	0.566779	0.134257	0.484507
119	H	0.592669	0.186131	0.455435
120	H	0.588186	0.177149	0.833954
121	H	0.533372	0.06732	0.749078
122	H	0.509029	0.018547	0.624514
123	H	0.482842	0.966079	0.675525
124	H	0.406721	0.81357	0.544565
125	C	0.217928	0.608129	0
126	C	0.188363	0.59343	0.026691
127	C	0.173167	0.585872	0.848462
128	C	0.139054	0.568911	0.825622
129	C	0.124538	0.561691	0.65394
130	C	0.093709	0.546363	0.679024
131	C	0.085139	0.542104	0.869109
132	C	0.055313	0.527275	0.950774
133	C	0.049975	0.524621	0.148154
134	C	0.021612	0.510519	0.221266
135	C	0.997491	0.498527	0.09917
136	C	0.968811	0.484267	0.170387
137	C	0.944389	0.472125	0.049227
138	C	0.914563	0.457295	0.130892
139	C	0.905992	0.453034	0.320977
140	C	0.875164	0.437706	0.34606
141	C	0.860648	0.430489	0.174379
142	C	0.826535	0.413528	0.151539
143	C	0.807582	0.404104	0.304534
144	S	0.771894	0.38636	0.232989
145	C	0.781774	0.391273	0
146	C	0.811339	0.405972	0.973309
147	S	0.884173	0.442186	0.986604
148	C	0.949726	0.474779	0.851847
149	C	0.97809	0.488881	0.778735
150	C	0.002211	0.500873	0.900831
151	C	0.030891	0.515133	0.829615
152	S	0.115528	0.557216	0.013397
153	C	0.19212	0.595294	0.695466
154	S	0.227807	0.613039	0.767011
155	H	0.178147	0.588352	0.166046
156	H	0.135013	0.566898	0.515493
157	H	0.078717	0.538907	0.55981
158	H	0.0677	0.533433	0.250924
159	H	0.018653	0.509048	0.375487
160	H	0.965889	0.482814	0.324476
161	H	0.920984	0.460488	0.440191
162	H	0.864688	0.432498	0.484507
163	H	0.812522	0.406561	0.455435
164	H	0.821555	0.411052	0.833954
165	H	0.932002	0.465966	0.749078
166	H	0.981049	0.490352	0.624514
167	H	0.033812	0.516586	0.675525
168	H	0.187179	0.592836	0.544565
