data_C96H48N12O6S12_2023-05-11_10:25:19
#******************************************
#
# CIF file created by Zeo++
# Zeo++ is an open source package to
# analyze microporous materials
#
#*******************************************

_cell_length_a		56.3041   
_cell_length_b		56.6026   
_cell_length_c		7   
_cell_angle_alpha		90   
_cell_angle_beta		90   
_cell_angle_gamma		119.77   

_symmetry_space_group_name_H-M		'P1'
_symmetry_Int_Tables_number		1
_symmetry_cell_setting		Monoclinic

loop_
_symmetry_equiv_pos_as_xyz
'+x,+y,+z'

loop_
_atom_site_label
_atom_site_type_symbol
_atom_site_fract_x
_atom_site_fract_y
_atom_site_fract_z
1	C	0.360864	0.672426	0.999995
2	O	0.385	0.676661	0.999991
3	C	0.339036	0.644125	0.999998
4	C	0.343265	0.623264	0
5	N	0.370282	0.628142	0
6	C	0.311123	0.639101	3e-06
7	O	0.291507	0.614709	5e-06
8	C	0.304427	0.660867	6e-06
9	C	0.27874	0.655614	5e-06
10	N	0.257501	0.627861	0
11	C	0.327304	0.688942	4e-06
12	O	0.321983	0.707764	7e-06
13	C	0.355667	0.695227	0.999999
14	C	0.375834	0.720839	0.999998
15	N	0.371792	0.743575	0
16	H	0.326556	0.602956	1e-06
17	H	0.273328	0.671204	8e-06
18	H	0.396224	0.724496	0.999997
19	C	0.639136	0.327574	0.999995
20	O	0.615	0.323339	0.999991
21	C	0.660964	0.355875	0.999998
22	C	0.656735	0.376736	0
23	N	0.629718	0.371858	0
24	C	0.688877	0.360899	3e-06
25	O	0.708493	0.385291	5e-06
26	C	0.695573	0.339133	6e-06
27	C	0.72126	0.344386	5e-06
28	N	0.742499	0.372139	0
29	C	0.672696	0.311058	4e-06
30	O	0.678017	0.292236	7e-06
31	C	0.644333	0.304773	0.999999
32	C	0.624166	0.279161	0.999998
33	N	0.628208	0.256425	0
34	H	0.673444	0.397044	1e-06
35	H	0.726672	0.328796	8e-06
36	H	0.603776	0.275504	0.999997
37	C	0.386765	0.61186	0
38	C	0.400868	0.597932	0.013757
39	C	0.405271	0.593579	0.208684
40	C	0.420747	0.578294	0.277074
41	C	0.424931	0.574157	0.464726
42	C	0.439594	0.559675	0.481906
43	C	0.446364	0.552993	0.30735
44	C	0.461341	0.538201	0.267775
45	C	0.466964	0.532645	0.084025
46	C	0.481275	0.51851	0.056269
47	C	0.490138	0.509758	0.213059
48	C	0.505468	0.494614	0.197465
49	C	0.512583	0.487582	0.024424
50	C	0.527031	0.473308	0.022925
51	C	0.534529	0.465903	0.193329
52	C	0.549758	0.450855	0.202181
53	C	0.558284	0.442422	0.361179
54	C	0.572605	0.428274	0.314471
55	C	0.574778	0.426137	0.120365
56	C	0.589454	0.411639	0.02382
57	C	0.59138	0.409746	0.828336
58	S	0.60849	0.392841	0.767315
59	C	0.613235	0.38814	0
60	C	0.602282	0.398958	0.124002
61	S	0.559641	0.441103	0.997667
62	C	0.526581	0.473759	0.358742
63	N	0.5126	0.487571	0.364393
64	N	0.484841	0.514993	0.392629
65	C	0.470948	0.528714	0.41533
66	S	0.434442	0.564772	0.12501
67	C	0.394217	0.604494	0.332852
68	S	0.378732	0.619789	0.214689
69	H	0.407666	0.591221	0.891121
70	H	0.418018	0.580982	0.58607
71	H	0.444782	0.554548	0.618887
72	H	0.460453	0.539073	0.957711
73	H	0.485093	0.514736	0.910809
74	H	0.507273	0.492825	0.888248
75	H	0.532139	0.468258	0.884792
76	H	0.554589	0.446065	0.507197
77	H	0.580726	0.420243	0.420375
78	H	0.583693	0.417348	0.716629
79	H	0.603414	0.397832	0.277775
80	H	0.531205	0.469192	0.500003
81	H	0.467861	0.531764	0.564434
82	H	0.394268	0.60444	0.487208
83	C	0.388047	0.77614	0
84	C	0.40195	0.803999	0.013757
85	C	0.406296	0.812702	0.208684
86	C	0.421556	0.843275	0.277074
87	C	0.425685	0.851545	0.464726
88	C	0.440143	0.880512	0.481906
89	C	0.446813	0.893882	0.30735
90	C	0.461579	0.923468	0.267775
91	C	0.467126	0.934579	0.084025
92	C	0.481237	0.962852	0.056269
93	C	0.489974	0.980358	0.213059
94	C	0.505092	0.010648	0.197465
95	C	0.512112	0.024707	0.024424
96	C	0.526362	0.053255	0.022925
97	C	0.533755	0.068066	0.193329
98	C	0.548776	0.098158	0.202181
99	C	0.557195	0.115014	0.361179
100	C	0.571319	0.143309	0.314471
101	C	0.573452	0.147592	0.120365
102	C	0.587925	0.176588	0.02382
103	C	0.589815	0.180383	0.828336
104	S	0.606691	0.214191	0.767315
105	C	0.611384	0.223579	0
106	C	0.600585	0.201942	0.124002
107	S	0.558512	0.117673	0.997667
108	C	0.525912	0.052359	0.358742
109	N	0.512123	0.024736	0.364393
110	N	0.484748	0.969891	0.392629
111	C	0.47105	0.942446	0.41533
112	S	0.435054	0.870326	0.12501
113	C	0.3954	0.790867	0.332852
114	S	0.380131	0.760275	0.214689
115	H	0.40865	0.817425	0.891121
116	H	0.418872	0.83789	0.58607
117	H	0.445261	0.890764	0.618887
118	H	0.460709	0.92172	0.957711
119	H	0.485004	0.970397	0.910809
120	H	0.506878	0.014219	0.888248
121	H	0.531403	0.06335	0.884792
122	H	0.553559	0.107721	0.507197
123	H	0.579336	0.159362	0.420375
124	H	0.582226	0.165188	0.716629
125	H	0.601709	0.204185	0.277775
126	H	0.530471	0.061493	0.500003
127	H	0.468005	0.936347	0.564434
128	H	0.395454	0.790971	0.487208
129	C	0.224763	0.611579	0
130	C	0.196757	0.597647	0.013757
131	C	0.188008	0.593297	0.208684
132	C	0.157272	0.578009	0.277074
133	C	0.148959	0.573876	0.464726
134	C	0.119838	0.559391	0.481906
135	C	0.106398	0.552703	0.30735
136	C	0.076655	0.537908	0.267775
137	C	0.065486	0.532354	0.084025
138	C	0.037063	0.518216	0.056269
139	C	0.019464	0.509461	0.213059
140	C	0.989014	0.494316	0.197465
141	C	0.97488	0.487288	0.024424
142	C	0.946182	0.473016	0.022925
143	C	0.931292	0.465609	0.193329
144	C	0.901041	0.450565	0.202181
145	C	0.884096	0.442142	0.361179
146	C	0.855651	0.427995	0.314471
147	C	0.851345	0.425849	0.120365
148	C	0.822196	0.411351	0.02382
149	C	0.81838	0.409448	0.828336
150	S	0.784394	0.392546	0.767315
151	C	0.774956	0.387859	0
152	C	0.796708	0.398679	0.124002
153	S	0.881422	0.440802	0.997667
154	C	0.947082	0.473461	0.358742
155	N	0.974852	0.487271	0.364393
156	N	0.029986	0.514694	0.392629
157	C	0.057577	0.528418	0.41533
158	S	0.130079	0.56448	0.12501
159	C	0.209958	0.604217	0.332852
160	S	0.240712	0.619514	0.214689
161	H	0.183259	0.590932	0.891121
162	H	0.162686	0.580706	0.58607
163	H	0.109533	0.554266	0.618887
164	H	0.078413	0.538785	0.957711
165	H	0.029478	0.514445	0.910809
166	H	0.985424	0.492534	0.888248
167	H	0.936033	0.46797	0.884792
168	H	0.891427	0.445792	0.507197
169	H	0.839513	0.419973	0.420375
170	H	0.833656	0.417042	0.716629
171	H	0.794452	0.397561	0.277775
172	H	0.9379	0.468893	0.500003
173	H	0.063709	0.531467	0.564434
174	H	0.209854	0.604167	0.487208
