data_C60H24N6O6S12_2023-05-23_19:54:31
#******************************************
#
# CIF file created by Zeo++
# Zeo++ is an open source package to
# analyze microporous materials
#
#*******************************************

_cell_length_a		36.6268   
_cell_length_b		36.9254   
_cell_length_c		7   
_cell_angle_alpha		90   
_cell_angle_beta		90   
_cell_angle_gamma		119.647   

_symmetry_space_group_name_H-M		'P1'
_symmetry_Int_Tables_number		1
_symmetry_cell_setting		Monoclinic

loop_
_symmetry_equiv_pos_as_xyz
'+x,+y,+z'

loop_
_atom_site_label
_atom_site_type_symbol
_atom_site_fract_x
_atom_site_fract_y
_atom_site_fract_z
1	C	0.375632	0.675484	0.999995
2	O	0.412719	0.681968	0.999991
3	C	0.342186	0.632155	0.999998
4	C	0.348765	0.600217	0
5	N	0.39028	0.607685	0
6	C	0.299296	0.624464	3e-06
7	O	0.269234	0.587118	5e-06
8	C	0.288919	0.657787	6e-06
9	C	0.249452	0.649745	5e-06
10	N	0.216908	0.607255	0
11	C	0.323979	0.70077	4e-06
12	O	0.315727	0.729587	7e-06
13	C	0.367556	0.710392	0.999999
14	C	0.39846	0.749605	0.999998
15	N	0.39216	0.784414	0
16	H	0.323157	0.569125	1e-06
17	H	0.241073	0.673614	8e-06
18	H	0.429791	0.755205	0.999997
19	C	0.624368	0.324516	0.999995
20	O	0.587281	0.318032	0.999991
21	C	0.657814	0.367845	0.999998
22	C	0.651235	0.399783	0
23	N	0.60972	0.392315	0
24	C	0.700704	0.375536	3e-06
25	O	0.730766	0.412882	5e-06
26	C	0.711081	0.342213	6e-06
27	C	0.750548	0.350255	5e-06
28	N	0.783092	0.392745	0
29	C	0.676021	0.29923	4e-06
30	O	0.684273	0.270413	7e-06
31	C	0.632444	0.289608	0.999999
32	C	0.60154	0.250395	0.999998
33	N	0.60784	0.215586	0
34	H	0.676843	0.430875	1e-06
35	H	0.758927	0.326386	8e-06
36	H	0.570209	0.244795	0.999997
37	C	0.584321	0.417243	0
38	C	0.588662	0.412982	0.19177
39	S	0.565787	0.435433	0.322957
40	C	0.550087	0.450842	0.12184
41	C	0.524998	0.475466	0.130877
42	C	0.514024	0.486237	0.300895
43	S	0.487099	0.512663	0.276841
44	C	0.489478	0.510328	0.027724
45	C	0.510524	0.489673	0.972276
46	S	0.512903	0.487339	0.723159
47	C	0.485977	0.513765	0.699105
48	C	0.475003	0.524535	0.869123
49	C	0.449914	0.549159	0.87816
50	C	0.437719	0.561126	0.041982
51	C	0.415679	0.582757	0
52	C	0.411338	0.587018	0.80823
53	S	0.434214	0.564568	0.677043
54	C	0.562281	0.438874	0.958018
55	H	0.603966	0.397961	0.261697
56	H	0.520493	0.479887	0.444006
57	H	0.479508	0.520114	0.555995
58	H	0.443952	0.555008	0.185661
59	H	0.396034	0.602038	0.738303
60	H	0.556049	0.444992	0.814339
61	C	0.582101	0.165298	0
62	C	0.586351	0.173821	0.19177
63	S	0.563959	0.128919	0.322957
64	C	0.548591	0.098101	0.12184
65	C	0.524032	0.048854	0.130877
66	C	0.513289	0.027313	0.300895
67	S	0.486933	0.97446	0.276841
68	C	0.489261	0.979129	0.027724
69	C	0.509862	0.020441	0.972276
70	S	0.51219	0.02511	0.723159
71	C	0.485834	0.972257	0.699105
72	C	0.475091	0.950716	0.869123
73	C	0.450532	0.901469	0.87816
74	C	0.438597	0.877533	0.041982
75	C	0.417023	0.834272	0
76	C	0.412773	0.825749	0.80823
77	S	0.435164	0.870651	0.677043
78	C	0.560527	0.122037	0.958018
79	H	0.601332	0.203861	0.261697
80	H	0.519622	0.040011	0.444006
81	H	0.479501	0.959559	0.555995
82	H	0.444698	0.889768	0.185661
83	H	0.397792	0.795709	0.738303
84	H	0.554425	0.109802	0.814339
85	C	0.832926	0.416812	0
86	C	0.824334	0.412552	0.19177
87	S	0.869601	0.435002	0.322957
88	C	0.900669	0.450411	0.12184
89	C	0.950317	0.475034	0.130877
90	C	0.972034	0.485805	0.300895
91	S	0.025316	0.512231	0.276841
92	C	0.020609	0.509896	0.027724
93	C	0.978962	0.489241	0.972276
94	S	0.974255	0.486906	0.723159
95	C	0.027537	0.513332	0.699105
96	C	0.049253	0.524103	0.869123
97	C	0.098901	0.548727	0.87816
98	C	0.123032	0.560695	0.041982
99	C	0.166645	0.582326	0
100	C	0.175236	0.586587	0.80823
101	S	0.129969	0.564135	0.677043
102	C	0.876539	0.438443	0.958018
103	H	0.794049	0.397531	0.261697
104	H	0.959232	0.479456	0.444006
105	H	0.040338	0.519681	0.555995
106	H	0.110697	0.554578	0.185661
107	H	0.205522	0.601607	0.738303
108	H	0.888873	0.44456	0.814339
