data_C102H51N9O6S18_2023-05-27_20:25:36
#******************************************
#
# CIF file created by Zeo++
# Zeo++ is an open source package to
# analyze microporous materials
#
#*******************************************

_cell_length_a		56.7705   
_cell_length_b		57.0689   
_cell_length_c		7   
_cell_angle_alpha		90   
_cell_angle_beta		90   
_cell_angle_gamma		119.772   

_symmetry_space_group_name_H-M		'P1'
_symmetry_Int_Tables_number		1
_symmetry_cell_setting		Monoclinic

loop_
_symmetry_equiv_pos_as_xyz
'+x,+y,+z'

loop_
_atom_site_label
_atom_site_type_symbol
_atom_site_fract_x
_atom_site_fract_y
_atom_site_fract_z
1	C	0.360638	0.672379	0.999995
2	O	0.384576	0.67658	0.999991
3	C	0.338989	0.644309	0.999998
4	C	0.343181	0.623618	0
5	N	0.369977	0.628457	0
6	C	0.311305	0.639326	3e-06
7	O	0.291849	0.615132	5e-06
8	C	0.304664	0.660914	6e-06
9	C	0.279188	0.655704	5e-06
10	N	0.258122	0.628177	0
11	C	0.327354	0.68876	4e-06
12	O	0.322077	0.707429	7e-06
13	C	0.355484	0.694994	0.999999
14	C	0.375487	0.720397	0.999998
15	N	0.371479	0.742948	0
16	H	0.326609	0.603476	1e-06
17	H	0.273821	0.671167	8e-06
18	H	0.39571	0.724025	0.999997
19	C	0.639362	0.327621	0.999995
20	O	0.615424	0.32342	0.999991
21	C	0.661011	0.355691	0.999998
22	C	0.656819	0.376382	0
23	N	0.630023	0.371543	0
24	C	0.688695	0.360674	3e-06
25	O	0.708151	0.384868	5e-06
26	C	0.695336	0.339086	6e-06
27	C	0.720812	0.344296	5e-06
28	N	0.741878	0.371823	0
29	C	0.672646	0.31124	4e-06
30	O	0.677923	0.292571	7e-06
31	C	0.644516	0.305006	0.999999
32	C	0.624513	0.279603	0.999998
33	N	0.628521	0.257052	0
34	H	0.673391	0.396524	1e-06
35	H	0.726179	0.328833	8e-06
36	H	0.60429	0.275975	0.999997
37	C	0.386324	0.612307	0
38	C	0.398106	0.600668	0.106232
39	C	0.395218	0.603518	0.306483
40	C	0.406316	0.592554	0.469723
41	C	0.403493	0.595341	0.662285
42	C	0.415652	0.583329	0.775129
43	C	0.427491	0.571634	0.66664
44	C	0.441427	0.557867	0.737789
45	C	0.445481	0.553862	0.927472
46	C	0.459976	0.539542	0.950559
47	C	0.466669	0.53293	0.777825
48	C	0.482554	0.517237	0.753998
49	C	0.49187	0.508033	0.901251
50	N	0.50469	0.495368	0.822287
51	C	0.503841	0.496207	0.625944
52	C	0.515601	0.48459	0.502708
53	C	0.515642	0.484551	0.305709
54	C	0.529116	0.471239	0.22777
55	C	0.5392	0.461275	0.366328
56	C	0.553902	0.446749	0.339859
57	C	0.564005	0.436767	0.478393
58	C	0.577491	0.423443	0.400481
59	C	0.577395	0.423539	0.203917
60	C	0.590662	0.410431	0.076128
61	C	0.590313	0.410777	0.878897
62	S	0.60637	0.394913	0.780808
63	C	0.613676	0.387693	0
64	C	0.604368	0.396889	0.146642
65	S	0.561159	0.439581	0.115998
66	S	0.531943	0.468443	0.590051
67	C	0.490073	0.509809	0.580812
68	S	0.455529	0.543936	0.591032
69	S	0.423464	0.575614	0.427506
70	C	0.381336	0.617232	0.341503
71	S	0.371948	0.626507	0.134531
72	H	0.408241	0.590656	0.044208
73	H	0.393307	0.605403	0.722457
74	H	0.415552	0.583426	0.929816
75	H	0.43844	0.560817	0.046754
76	H	0.465075	0.534504	0.087751
77	H	0.490612	0.509276	0.054667
78	H	0.513571	0.486595	0.89615
79	H	0.506454	0.493629	0.219469
80	H	0.531138	0.469243	0.075615
81	H	0.561972	0.438775	0.630517
82	H	0.586656	0.414388	0.486996
83	H	0.581508	0.419477	0.785631
84	H	0.607234	0.394057	0.295929
85	H	0.48586	0.513972	0.437904
86	H	0.376066	0.622437	0.477127
87	C	0.387601	0.775247	0
88	C	0.399221	0.798526	0.106232
89	C	0.396375	0.792823	0.306483
90	C	0.407321	0.814751	0.469723
91	C	0.404539	0.809175	0.662285
92	C	0.41653	0.833199	0.775129
93	C	0.428205	0.856591	0.66664
94	C	0.441949	0.884126	0.737789
95	C	0.445947	0.892136	0.927472
96	C	0.460242	0.920776	0.950559
97	C	0.466844	0.934002	0.777825
98	C	0.48251	0.965387	0.753998
99	C	0.491699	0.983796	0.901251
100	N	0.504342	0.009126	0.822287
101	C	0.503505	0.007449	0.625944
102	C	0.515102	0.030684	0.502708
103	C	0.515141	0.030763	0.305709
104	C	0.52843	0.057387	0.22777
105	C	0.538378	0.077314	0.366328
106	C	0.552878	0.106364	0.339859
107	C	0.562844	0.126327	0.478393
108	C	0.576146	0.152976	0.400481
109	C	0.57605	0.152785	0.203917
110	C	0.589136	0.179	0.076128
111	C	0.58879	0.178309	0.878897
112	S	0.604627	0.210037	0.780808
113	C	0.611835	0.224474	0
114	C	0.602655	0.206083	0.146642
115	S	0.560035	0.120702	0.115998
116	S	0.531221	0.062975	0.590051
117	C	0.489925	0.980244	0.580812
118	S	0.455857	0.911989	0.591032
119	S	0.424232	0.848632	0.427506
120	C	0.382685	0.765394	0.341503
121	S	0.373425	0.746844	0.134531
122	H	0.409216	0.818551	0.044208
123	H	0.394494	0.78905	0.722457
124	H	0.416433	0.833004	0.929816
125	H	0.439004	0.878225	0.046754
126	H	0.465272	0.930852	0.087751
127	H	0.490458	0.98131	0.054667
128	H	0.513101	0.026673	0.89615
129	H	0.506078	0.012608	0.219469
130	H	0.530423	0.06138	0.075615
131	H	0.560839	0.122311	0.630517
132	H	0.585185	0.171085	0.486996
133	H	0.580105	0.160911	0.785631
134	H	0.605482	0.211746	0.295929
135	H	0.485769	0.971918	0.437904
136	H	0.377488	0.754982	0.477127
137	C	0.225653	0.612028	0
138	C	0.202252	0.600388	0.106232
139	C	0.207985	0.60324	0.306483
140	C	0.185942	0.592276	0.469723
141	C	0.191547	0.595065	0.662285
142	C	0.167397	0.583053	0.775129
143	C	0.143883	0.571356	0.66664
144	C	0.116203	0.557589	0.737789
145	C	0.10815	0.553583	0.927472
146	C	0.079361	0.539263	0.950559
147	C	0.066065	0.53265	0.777825
148	C	0.034515	0.516957	0.753998
149	C	0.01601	0.507753	0.901251
150	N	0.990547	0.495087	0.822287
151	C	0.992233	0.495926	0.625944
152	C	0.968875	0.484308	0.502708
153	C	0.968796	0.484268	0.305709
154	C	0.942033	0.470956	0.22777
155	C	0.922001	0.460993	0.366328
156	C	0.892798	0.446468	0.339859
157	C	0.87273	0.436487	0.478393
158	C	0.845942	0.423163	0.400481
159	C	0.846134	0.423258	0.203917
160	C	0.819781	0.41015	0.076128
161	C	0.820476	0.410496	0.878897
162	S	0.788582	0.394632	0.780808
163	C	0.774068	0.387414	0
164	C	0.792556	0.396609	0.146642
165	S	0.878385	0.439299	0.115998
166	S	0.936415	0.468163	0.590051
167	C	0.01958	0.509528	0.580812
168	S	0.088193	0.543656	0.591032
169	S	0.151883	0.575335	0.427506
170	C	0.235558	0.616956	0.341503
171	S	0.254205	0.62623	0.134531
172	H	0.182122	0.590375	0.044208
173	H	0.211778	0.605128	0.722457
174	H	0.167593	0.583151	0.929816
175	H	0.122135	0.560539	0.046754
176	H	0.069232	0.534225	0.087751
177	H	0.018509	0.508996	0.054667
178	H	0.972907	0.486314	0.89615
179	H	0.987047	0.493345	0.219469
180	H	0.938018	0.468958	0.075615
181	H	0.876768	0.438495	0.630517
182	H	0.827738	0.414109	0.486996
183	H	0.837965	0.419194	0.785631
184	H	0.786863	0.393778	0.295929
185	H	0.02795	0.513691	0.437904
186	H	0.246025	0.622162	0.477127
