data_C120H60N6O6S18_2023-05-13_07:15:22
#******************************************
#
# CIF file created by Zeo++
# Zeo++ is an open source package to
# analyze microporous materials
#
#*******************************************

_cell_length_a		62.8342   
_cell_length_b		63.1326   
_cell_length_c		7   
_cell_angle_alpha		90   
_cell_angle_beta		90   
_cell_angle_gamma		119.794   

_symmetry_space_group_name_H-M		'P1'
_symmetry_Int_Tables_number		1
_symmetry_cell_setting		Monoclinic

loop_
_symmetry_equiv_pos_as_xyz
'+x,+y,+z'

loop_
_atom_site_label
_atom_site_type_symbol
_atom_site_fract_x
_atom_site_fract_y
_atom_site_fract_z
1	C	0.358005	0.671831	0.999995
2	O	0.379635	0.675629	0.999991
3	C	0.338434	0.646452	0.999998
4	C	0.342214	0.627744	0
5	N	0.366426	0.632119	0
6	C	0.31342	0.641947	3e-06
7	O	0.295832	0.620072	5e-06
8	C	0.307428	0.661465	6e-06
9	C	0.284409	0.656755	5e-06
10	N	0.265365	0.631867	0
11	C	0.32794	0.686643	4e-06
12	O	0.32318	0.703522	7e-06
13	C	0.353358	0.692279	0.999999
14	C	0.371441	0.715247	0.999998
15	N	0.367828	0.735636	0
16	H	0.327232	0.609533	1e-06
17	H	0.279566	0.670736	8e-06
18	H	0.389713	0.718527	0.999997
19	C	0.641995	0.328169	0.999995
20	O	0.620365	0.324371	0.999991
21	C	0.661566	0.353548	0.999998
22	C	0.657786	0.372256	0
23	N	0.633574	0.367881	0
24	C	0.68658	0.358053	3e-06
25	O	0.704168	0.379928	5e-06
26	C	0.692572	0.338535	6e-06
27	C	0.715591	0.343245	5e-06
28	N	0.734635	0.368133	0
29	C	0.67206	0.313357	4e-06
30	O	0.67682	0.296478	7e-06
31	C	0.646642	0.307721	0.999999
32	C	0.628559	0.284753	0.999998
33	N	0.632172	0.264364	0
34	H	0.672768	0.390467	1e-06
35	H	0.720434	0.329264	8e-06
36	H	0.610287	0.281473	0.999997
37	C	0.381189	0.617517	0
38	C	0.358674	0.603063	0.081326
39	S	0.356635	0.577168	0.175835
40	C	0.386123	0.585287	0.10764
41	C	0.396572	0.569807	0.148522
42	C	0.38537	0.547031	0.233572
43	C	0.401259	0.537023	0.251121
44	C	0.424491	0.552233	0.179517
45	C	0.445189	0.548052	0.172895
46	C	0.469062	0.564136	0.117087
47	C	0.484725	0.553824	0.127517
48	C	0.472462	0.530012	0.190579
49	C	0.48201	0.513255	0.219754
50	C	0.489584	0.511538	0.404863
51	C	0.499145	0.496334	0.441912
52	C	0.501278	0.482742	0.293985
53	C	0.493915	0.483844	0.104855
54	C	0.496024	0.470058	0.952221
55	C	0.505668	0.453376	0.981114
56	C	0.493439	0.429465	0.041813
57	C	0.509207	0.419268	0.052093
58	C	0.533124	0.435538	0.998569
59	C	0.553906	0.431484	0.991641
60	C	0.577816	0.447774	0.939383
61	C	0.59352	0.437486	0.948837
62	C	0.581491	0.413464	0.009025
63	C	0.592108	0.397828	0.031804
64	C	0.613373	0.400918	0.946366
65	C	0.618811	0.382483	0
66	C	0.602071	0.365747	0.124328
67	S	0.579469	0.3724	0.176753
68	S	0.551172	0.403866	0.052061
69	S	0.535864	0.463165	0.935899
70	C	0.488437	0.471762	0.76713
71	C	0.478835	0.48693	0.730148
72	C	0.476697	0.500518	0.878096
73	C	0.484091	0.499442	0.067174
74	S	0.442375	0.520477	0.238263
75	S	0.426413	0.578539	0.092061
76	C	0.397014	0.607605	0.01405
77	H	0.343338	0.606288	0.090341
78	H	0.366501	0.537596	0.282029
79	H	0.395559	0.519332	0.31435
80	H	0.475331	0.582672	0.070317
81	H	0.504006	0.56341	0.089991
82	H	0.488046	0.52217	0.520913
83	H	0.505004	0.495051	0.585414
84	H	0.50896	0.471096	0.32873
85	H	0.474105	0.419714	0.077647
86	H	0.502977	0.400676	0.097206
87	H	0.584104	0.466423	0.895594
88	H	0.612855	0.447563	0.913554
89	H	0.624381	0.415683	0.84882
90	H	0.601863	0.350003	0.187182
91	H	0.490005	0.461153	0.651036
92	H	0.472945	0.488191	0.586705
93	H	0.468971	0.512125	0.843396
94	H	0.415523	0.61642	0.957945
95	C	0.382408	0.76484	0
96	C	0.396994	0.756872	0.081326
97	S	0.422966	0.780634	0.175835
98	C	0.414704	0.801837	0.10764
99	C	0.430182	0.827631	0.148522
100	C	0.453065	0.839186	0.233572
101	C	0.463034	0.864934	0.251121
102	C	0.447686	0.872861	0.179517
103	C	0.451793	0.897583	0.172895
104	C	0.435566	0.905276	0.117087
105	C	0.445841	0.931102	0.127517
106	C	0.469768	0.942636	0.190579
107	C	0.48653	0.968806	0.219754
108	C	0.488219	0.978038	0.404863
109	C	0.503425	0.002676	0.441912
110	C	0.517044	0.018329	0.293985
111	C	0.515969	0.009919	0.104855
112	C	0.529784	0.025744	0.952221
113	C	0.54647	0.051934	0.981114
114	C	0.570496	0.063599	0.041813
115	C	0.580654	0.089416	0.052093
116	C	0.564241	0.096967	0.998569
117	C	0.56822	0.121645	0.991641
118	C	0.551787	0.12917	0.939383
119	C	0.562038	0.155013	0.948837
120	C	0.586174	0.166988	0.009025
121	C	0.601808	0.193105	0.031804
122	C	0.598621	0.211148	0.946366
123	C	0.617083	0.234908	0
124	C	0.633933	0.234948	0.124328
125	S	0.627355	0.205873	0.176753
126	S	0.595924	0.146434	0.052061
127	S	0.536529	0.072176	0.935899
128	C	0.528107	0.01651	0.76713
129	C	0.512938	0.991868	0.730148
130	C	0.499323	0.976214	0.878096
131	C	0.500371	0.984629	0.067174
132	S	0.479453	0.922248	0.238263
133	S	0.421302	0.848573	0.092061
134	C	0.392281	0.790429	0.01405
135	H	0.393824	0.738428	0.090341
136	H	0.462603	0.829841	0.282029
137	H	0.480795	0.87689	0.31435
138	H	0.416955	0.893044	0.070317
139	H	0.436149	0.940706	0.089991
140	H	0.477566	0.965923	0.520913
141	H	0.504687	0.009773	0.585414
142	H	0.528689	0.037557	0.32873
143	H	0.580353	0.054107	0.077647
144	H	0.599322	0.101742	0.097206
145	H	0.533062	0.116844	0.895594
146	H	0.551854	0.164182	0.913554
147	H	0.583771	0.207377	0.84882
148	H	0.64972	0.25042	0.187182
149	H	0.538738	0.028632	0.651036
150	H	0.511698	0.984763	0.586705
151	H	0.487716	0.956981	0.843396
152	H	0.383365	0.800033	0.957945
153	C	0.236023	0.617265	0
154	C	0.243952	0.639687	0.081326
155	S	0.220018	0.641819	0.175835
156	C	0.198793	0.612498	0.10764
157	C	0.172865	0.602184	0.148522
158	C	0.161184	0.613404	0.233572
159	C	0.135327	0.597665	0.251121
160	C	0.127442	0.574527	0.179517
161	C	0.102637	0.553987	0.172895
162	C	0.094991	0.53021	0.117087
163	C	0.069054	0.514696	0.127517
164	C	0.057389	0.526974	0.190579
165	C	0.03108	0.517561	0.219754
166	C	0.021816	0.510045	0.404863
167	C	0.997049	0.500612	0.441912
168	C	0.981298	0.49855	0.293985
169	C	0.989735	0.505859	0.104855
170	C	0.973811	0.503821	0.952221
171	C	0.947481	0.494311	0.981114
172	C	0.935685	0.506557	0.041813
173	C	0.909757	0.490938	0.052093
174	C	0.902254	0.467116	0.998569
175	C	0.877494	0.446492	0.991641
176	C	0.870016	0.422677	0.939383
177	C	0.844062	0.407122	0.948837
178	C	0.831955	0.41917	0.009025
179	C	0.805704	0.408689	0.031804
180	C	0.787626	0.387555	0.946366
181	C	0.763725	0.382231	0
182	C	0.763616	0.398927	0.124328
183	S	0.792795	0.421348	0.176753
184	S	0.852523	0.449322	0.052061
185	S	0.927226	0.46428	0.935899
186	C	0.983076	0.51135	0.76713
187	C	0.007847	0.520824	0.730148
188	C	0.023599	0.52289	0.878096
189	C	0.015158	0.515551	0.067174
190	S	0.077792	0.556897	0.238263
191	S	0.151904	0.572509	0.092061
192	C	0.210324	0.601587	0.01405
193	H	0.262457	0.654905	0.090341
194	H	0.170515	0.632185	0.282029
195	H	0.123265	0.603399	0.31435
196	H	0.107333	0.523906	0.070317
197	H	0.059465	0.495506	0.089991
198	H	0.034008	0.511529	0.520913
199	H	0.989928	0.494798	0.585414
200	H	0.961971	0.490969	0.32873
201	H	0.945161	0.5258	0.077647
202	H	0.89732	0.497204	0.097206
203	H	0.882453	0.416354	0.895594
204	H	0.834911	0.387877	0.913554
205	H	0.791468	0.376561	0.84882
206	H	0.748037	0.399199	0.187182
207	H	0.970877	0.509836	0.651036
208	H	0.014976	0.526668	0.586705
209	H	0.042932	0.530515	0.843396
210	H	0.200731	0.583168	0.957945
