data_C54H24N12O6S6_2023-05-12_07:06:07
#******************************************
#
# CIF file created by Zeo++
# Zeo++ is an open source package to
# analyze microporous materials
#
#*******************************************

_cell_length_a		35.8631   
_cell_length_b		36.1618   
_cell_length_c		7   
_cell_angle_alpha		90   
_cell_angle_beta		90   
_cell_angle_gamma		119.639   

_symmetry_space_group_name_H-M		'P1'
_symmetry_Int_Tables_number		1
_symmetry_cell_setting		Monoclinic

loop_
_symmetry_equiv_pos_as_xyz
'+x,+y,+z'

loop_
_atom_site_label
_atom_site_type_symbol
_atom_site_fract_x
_atom_site_fract_y
_atom_site_fract_z
1	C	0.376531	0.67567	0.999995
2	O	0.414407	0.68229	0.999991
3	C	0.342379	0.631429	0.999998
4	C	0.349104	0.598819	0
5	N	0.391501	0.606444	0
6	C	0.298578	0.623576	3e-06
7	O	0.267881	0.585444	5e-06
8	C	0.287974	0.6576	6e-06
9	C	0.247669	0.649389	5e-06
10	N	0.214438	0.606005	0
11	C	0.323775	0.701488	4e-06
12	O	0.315343	0.730911	7e-06
13	C	0.368277	0.711312	0.999999
14	C	0.399834	0.75135	0.999998
15	N	0.393394	0.786892	0
16	H	0.322955	0.567073	1e-06
17	H	0.239108	0.67376	8e-06
18	H	0.431831	0.757068	0.999997
19	C	0.623469	0.32433	0.999995
20	O	0.585593	0.31771	0.999991
21	C	0.657621	0.368571	0.999998
22	C	0.650896	0.401181	0
23	N	0.608499	0.393556	0
24	C	0.701422	0.376424	3e-06
25	O	0.732119	0.414556	5e-06
26	C	0.712026	0.3424	6e-06
27	C	0.752331	0.350611	5e-06
28	N	0.785562	0.393995	0
29	C	0.676225	0.298512	4e-06
30	O	0.684657	0.269089	7e-06
31	C	0.631723	0.288688	0.999999
32	C	0.600166	0.24865	0.999998
33	N	0.606606	0.213108	0
34	H	0.677045	0.432927	1e-06
35	H	0.760892	0.32624	8e-06
36	H	0.568169	0.242932	0.999997
37	C	0.582554	0.419009	0
38	C	0.582774	0.418795	0.804335
39	S	0.557025	0.444055	0.71405
40	C	0.545415	0.455446	0.937944
41	C	0.521759	0.478655	0.964919
42	C	0.506485	0.493638	0.818654
43	N	0.484706	0.515004	0.849751
44	C	0.478241	0.521346	0.035083
45	C	0.454585	0.544555	0.062058
46	C	0.438625	0.560213	0.922188
47	C	0.417446	0.580991	0
48	C	0.417227	0.581206	0.195665
49	S	0.442976	0.555946	0.285952
50	C	0.493515	0.506362	0.181348
51	N	0.515295	0.484997	0.150252
52	C	0.561375	0.439787	0.077813
53	H	0.596634	0.405196	0.709731
54	H	0.511012	0.489198	0.668998
55	H	0.44235	0.55656	0.770794
56	H	0.403366	0.594804	0.290268
57	H	0.488988	0.510803	0.331004
58	H	0.55765	0.44344	0.229207
59	C	0.580326	0.161763	0
60	C	0.58054	0.162192	0.804335
61	S	0.555347	0.11167	0.71405
62	C	0.543987	0.08889	0.937944
63	C	0.520841	0.042473	0.964919
64	C	0.505897	0.012504	0.818654
65	N	0.484589	0.969772	0.849751
66	C	0.478264	0.957088	0.035083
67	C	0.455118	0.910671	0.062058
68	C	0.439502	0.879355	0.922188
69	C	0.418779	0.837798	0
70	C	0.418565	0.837369	0.195665
71	S	0.443757	0.88789	0.285952
72	C	0.493207	0.987056	0.181348
73	N	0.514515	0.029789	0.150252
74	C	0.559604	0.120206	0.077813
75	H	0.594102	0.189389	0.709731
76	H	0.510326	0.021387	0.668998
77	H	0.443145	0.886662	0.770794
78	H	0.405004	0.810172	0.290268
79	H	0.488778	0.978174	0.331004
80	H	0.555961	0.112899	0.229207
81	C	0.836453	0.418569	0
82	C	0.83602	0.418354	0.804335
83	S	0.886961	0.443615	0.71405
84	C	0.909931	0.455005	0.937944
85	C	0.956733	0.478213	0.964919
86	C	0.986951	0.493198	0.818654
87	N	0.030039	0.514565	0.849751
88	C	0.042828	0.520907	0.035083
89	C	0.089631	0.544115	0.062058
90	C	0.121207	0.559773	0.922188
91	C	0.163109	0.580551	0
92	C	0.163542	0.580766	0.195665
93	S	0.1126	0.555504	0.285952
94	C	0.012611	0.505922	0.181348
95	N	0.969523	0.484554	0.150252
96	C	0.878355	0.439348	0.077813
97	H	0.808598	0.404756	0.709731
98	H	0.977995	0.488756	0.668998
99	H	0.113839	0.556119	0.770794
100	H	0.190964	0.594365	0.290268
101	H	0.021567	0.510363	0.331004
102	H	0.885723	0.443001	0.229207
