data_C84H48N12O6S6_2023-05-11_01:39:50
#******************************************
#
# CIF file created by Zeo++
# Zeo++ is an open source package to
# analyze microporous materials
#
#*******************************************

_cell_length_a		45.8392   
_cell_length_b		46.1377   
_cell_length_c		7   
_cell_angle_alpha		90   
_cell_angle_beta		90   
_cell_angle_gamma		119.717   

_symmetry_space_group_name_H-M		'P1'
_symmetry_Int_Tables_number		1
_symmetry_cell_setting		Monoclinic

loop_
_symmetry_equiv_pos_as_xyz
'+x,+y,+z'

loop_
_atom_site_label
_atom_site_type_symbol
_atom_site_fract_x
_atom_site_fract_y
_atom_site_fract_z
1	C	0.367141	0.673729	0.999995
2	O	0.396782	0.678922	0.999991
3	C	0.340367	0.639026	0.999998
4	C	0.345588	0.613448	0
5	N	0.378768	0.619429	0
6	C	0.306089	0.632867	3e-06
7	O	0.282026	0.602957	5e-06
8	C	0.297835	0.659555	6e-06
9	C	0.266291	0.653115	5e-06
10	N	0.240239	0.619084	0
11	C	0.325898	0.69398	4e-06
12	O	0.319338	0.717059	7e-06
13	C	0.360728	0.701686	0.999999
14	C	0.385467	0.733092	0.999998
15	N	0.380472	0.76097	0
16	H	0.325091	0.588547	1e-06
17	H	0.259623	0.67223	8e-06
18	H	0.410507	0.737576	0.999997
19	C	0.632859	0.326271	0.999995
20	O	0.603218	0.321078	0.999991
21	C	0.659633	0.360974	0.999998
22	C	0.654412	0.386552	0
23	N	0.621232	0.380571	0
24	C	0.693911	0.367133	3e-06
25	O	0.717974	0.397043	5e-06
26	C	0.702165	0.340445	6e-06
27	C	0.733709	0.346885	5e-06
28	N	0.759761	0.380916	0
29	C	0.674102	0.30602	4e-06
30	O	0.680662	0.282941	7e-06
31	C	0.639272	0.298314	0.999999
32	C	0.614533	0.266908	0.999998
33	N	0.619528	0.23903	0
34	H	0.674909	0.411453	1e-06
35	H	0.740377	0.32777	8e-06
36	H	0.589493	0.262424	0.999997
37	C	0.600966	0.400536	0
38	C	0.589317	0.421452	0.056513
39	C	0.586326	0.421944	0.260305
40	C	0.574875	0.441196	0.363718
41	C	0.579139	0.448848	0.550912
42	C	0.563509	0.469663	0.603736
43	C	0.549377	0.472682	0.415882
44	C	0.531299	0.491201	0.399485
45	C	0.517551	0.494608	0.229511
46	N	0.50075	0.511875	0.214473
47	C	0.497795	0.526122	0.377145
48	C	0.479789	0.54475	0.362842
49	C	0.465729	0.549101	0.204757
50	C	0.449985	0.569041	0.247109
51	C	0.432729	0.578586	0.112547
52	C	0.433867	0.575057	0.91681
53	S	0.410644	0.588807	0.794177
54	C	0.399034	0.599464	0
55	C	0.412179	0.592995	0.1599
56	C	0.454629	0.576726	0.434296
57	C	0.474032	0.562193	0.526938
58	C	0.51155	0.522706	0.547081
59	N	0.52836	0.505447	0.562113
60	C	0.556282	0.456146	0.281302
61	C	0.596049	0.401067	0.346445
62	S	0.60841	0.3814	0.184398
63	H	0.583458	0.435809	0.957071
64	H	0.592123	0.44172	0.652834
65	H	0.543824	0.456828	0.710977
66	H	0.582595	0.494005	0.658327
67	H	0.519468	0.483504	0.097026
68	H	0.465865	0.539039	0.06559
69	H	0.447226	0.565221	0.836942
70	H	0.407243	0.598171	0.30348
71	H	0.446107	0.591434	0.511159
72	H	0.45913	0.544746	0.640228
73	H	0.497681	0.582017	0.585775
74	H	0.509634	0.533797	0.679671
75	H	0.549179	0.453564	0.132674
76	H	0.596466	0.395981	0.496906
77	C	0.598905	0.198755	0
78	C	0.577979	0.166417	0.056513
79	C	0.577503	0.162966	0.260305
80	C	0.558244	0.132477	0.363718
81	C	0.55054	0.129094	0.550912
82	C	0.529738	0.092912	0.603736
83	C	0.526789	0.075909	0.415882
84	C	0.508304	0.039586	0.399485
85	C	0.504963	0.022578	0.229511
86	N	0.487728	0.988764	0.214473
87	C	0.473445	0.971669	0.377145
88	C	0.454852	0.935309	0.362842
89	C	0.450564	0.917053	0.204757
90	C	0.43064	0.881627	0.247109
91	C	0.421158	0.855041	0.112547
92	C	0.424694	0.859678	0.91681
93	S	0.411026	0.822999	0.794177
94	C	0.400395	0.8009	0
95	C	0.406814	0.820355	0.1599
96	C	0.422901	0.878588	0.434296
97	C	0.437377	0.912261	0.526938
98	C	0.476796	0.988694	0.547081
99	N	0.494022	0.022509	0.562113
100	C	0.543346	0.099193	0.281302
101	C	0.598401	0.193357	0.346445
102	S	0.618069	0.225158	0.184398
103	H	0.563602	0.146337	0.957071
104	H	0.557621	0.149044	0.652834
105	H	0.542732	0.086172	0.710977
106	H	0.505199	0.087618	0.658327
107	H	0.516097	0.035518	0.097026
108	H	0.460663	0.927193	0.06559
109	H	0.43449	0.882693	0.836942
110	H	0.401646	0.810318	0.30348
111	H	0.408188	0.855521	0.511159
112	H	0.454973	0.914846	0.640228
113	H	0.417346	0.915979	0.585775
114	H	0.465675	0.975768	0.679671
115	H	0.545977	0.094723	0.132674
116	H	0.603503	0.198827	0.496906
117	C	0.799607	0.400191	0
118	C	0.832183	0.411613	0.056513
119	C	0.83565	0.414573	0.260305
120	C	0.86636	0.425809	0.363718
121	C	0.869799	0.421541	0.550912
122	C	0.906232	0.436908	0.603736
123	C	0.923313	0.450892	0.415882
124	C	0.959875	0.468696	0.399485
125	C	0.976965	0.482297	0.229511
126	N	0.011	0.498844	0.214473
127	C	0.028239	0.501691	0.377145
128	C	0.064838	0.519424	0.362842
129	C	0.083185	0.533329	0.204757
130	C	0.118853	0.548814	0.247109
131	C	0.145591	0.565856	0.112547
132	C	0.140917	0.564748	0.91681
133	S	0.177808	0.587677	0.794177
134	C	0.200049	0.599119	0
135	C	0.180486	0.586133	0.1599
136	C	0.121948	0.544169	0.434296
137	C	0.08807	0.525029	0.526938
138	C	0.011132	0.488083	0.547081
139	N	0.977096	0.471527	0.562113
140	C	0.89985	0.444144	0.281302
141	C	0.805029	0.405059	0.346445
142	S	0.772999	0.392925	0.184398
143	H	0.852418	0.417336	0.957071
144	H	0.849735	0.408718	0.652834
145	H	0.912922	0.456483	0.710977
146	H	0.911684	0.41786	0.658327
147	H	0.963914	0.480462	0.097026
148	H	0.072951	0.533251	0.06559
149	H	0.117762	0.551569	0.836942
150	H	0.190589	0.590994	0.30348
151	H	0.145183	0.552528	0.511159
152	H	0.085375	0.539891	0.640228
153	H	0.084451	0.501487	0.585775
154	H	0.024169	0.489918	0.679671
155	H	0.904322	0.451196	0.132674
156	H	0.799509	0.404675	0.496906
