data_C60H36N12O6_2023-05-11_14:48:48
#******************************************
#
# CIF file created by Zeo++
# Zeo++ is an open source package to
# analyze microporous materials
#
#*******************************************

_cell_length_a		35.6762   
_cell_length_b		35.9748   
_cell_length_c		7   
_cell_angle_alpha		90   
_cell_angle_beta		90   
_cell_angle_gamma		119.637   

_symmetry_space_group_name_H-M		'P1'
_symmetry_Int_Tables_number		1
_symmetry_cell_setting		Monoclinic

loop_
_symmetry_equiv_pos_as_xyz
'+x,+y,+z'

loop_
_atom_site_label
_atom_site_type_symbol
_atom_site_fract_x
_atom_site_fract_y
_atom_site_fract_z
1	C	0.376757	0.675716	0.999995
2	O	0.414831	0.682371	0.999991
3	C	0.342428	0.631246	0.999998
4	C	0.349189	0.598467	0
5	N	0.391808	0.606133	0
6	C	0.298397	0.623353	3e-06
7	O	0.267542	0.585024	5e-06
8	C	0.287737	0.657553	6e-06
9	C	0.24722	0.6493	5e-06
10	N	0.213817	0.60569	0
11	C	0.323723	0.701668	4e-06
12	O	0.315246	0.731243	7e-06
13	C	0.368459	0.711544	0.999999
14	C	0.40018	0.751789	0.999998
15	N	0.393704	0.787514	0
16	H	0.322905	0.566557	1e-06
17	H	0.238614	0.673797	8e-06
18	H	0.432344	0.757536	0.999997
19	C	0.623243	0.324284	0.999995
20	O	0.585169	0.317629	0.999991
21	C	0.657572	0.368754	0.999998
22	C	0.650811	0.401533	0
23	N	0.608192	0.393867	0
24	C	0.701603	0.376647	3e-06
25	O	0.732458	0.414976	5e-06
26	C	0.712263	0.342447	6e-06
27	C	0.75278	0.3507	5e-06
28	N	0.786183	0.39431	0
29	C	0.676277	0.298332	4e-06
30	O	0.684754	0.268757	7e-06
31	C	0.631541	0.288456	0.999999
32	C	0.59982	0.248211	0.999998
33	N	0.606296	0.212486	0
34	H	0.677095	0.433443	1e-06
35	H	0.761386	0.326203	8e-06
36	H	0.567656	0.242464	0.999997
37	C	0.41789	0.580548	0
38	C	0.437802	0.561191	0.07937
39	C	0.454276	0.54463	0.931117
40	C	0.478006	0.521389	0.964405
41	C	0.493389	0.506153	0.818933
42	N	0.515287	0.484714	0.850336
43	C	0.521853	0.47847	0.0356
44	C	0.545589	0.455236	0.068886
45	C	0.555868	0.445194	0.239494
46	C	0.580243	0.421316	0.212736
47	C	0.58211	0.419452	0
48	C	0.562265	0.438877	0.920629
49	C	0.506474	0.49371	0.181071
50	N	0.484577	0.51515	0.149668
51	C	0.4438	0.554475	0.760513
52	C	0.419493	0.578422	0.787269
53	H	0.441632	0.557816	0.23038
54	H	0.488766	0.510539	0.669337
55	H	0.548427	0.452495	0.379229
56	H	0.562577	0.389393	0.276233
57	H	0.612428	0.439038	0.276129
58	H	0.558613	0.442428	0.769616
59	H	0.511108	0.489335	0.330667
60	H	0.451046	0.54698	0.620782
61	H	0.387228	0.560644	0.724688
62	H	0.437104	0.610265	0.722964
63	C	0.41922	0.838684	0
64	C	0.438524	0.877576	0.07937
65	C	0.455043	0.910294	0.931117
66	C	0.47822	0.956813	0.964405
67	C	0.493416	0.987138	0.818933
68	N	0.514797	0.030059	0.850336
69	C	0.521023	0.042746	0.0356
70	C	0.544194	0.089265	0.068886
71	C	0.554208	0.10939	0.239494
72	C	0.578022	0.15718	0.212736
73	C	0.57988	0.160874	0
74	C	0.560509	0.121983	0.920629
75	C	0.505823	0.012421	0.181071
76	N	0.484441	0.9695	0.149668
77	C	0.445227	0.890169	0.760513
78	C	0.421345	0.842379	0.787269
79	H	0.441886	0.88471	0.23038
80	H	0.489043	0.978216	0.669337
81	H	0.546927	0.09479	0.379229
82	H	0.610224	0.171414	0.276233
83	H	0.559981	0.171388	0.276129
84	H	0.556967	0.114848	0.769616
85	H	0.510185	0.021342	0.330667
86	H	0.452705	0.904769	0.620782
87	H	0.439441	0.828146	0.724688
88	H	0.389223	0.828169	0.722964
89	C	0.16222	0.580105	0
90	C	0.123004	0.56057	0.07937
91	C	0.090011	0.544413	0.931117
92	C	0.043104	0.521135	0.964405
93	C	0.012525	0.506046	0.818933
94	N	0.969246	0.484564	0.850336
95	C	0.956454	0.478121	0.0356
96	C	0.909547	0.454836	0.068886
97	C	0.889254	0.444754	0.239494
98	C	0.841065	0.420842	0.212736
99	C	0.837339	0.41901	0
100	C	0.876556	0.438478	0.920629
101	C	0.987033	0.493207	0.181071
102	N	0.030312	0.514687	0.149668
103	C	0.110303	0.554693	0.760513
104	C	0.158492	0.578537	0.787269
105	H	0.115812	0.556811	0.23038
106	H	0.021521	0.510582	0.669337
107	H	0.903976	0.452053	0.379229
108	H	0.826529	0.43853	0.276233
109	H	0.826921	0.388911	0.276129
110	H	0.88375	0.442061	0.769616
111	H	0.978037	0.48866	0.330667
112	H	0.095579	0.547588	0.620782
113	H	0.172661	0.610547	0.724688
114	H	0.173003	0.560904	0.722964
