data_C81H42N6O6S12_2023-05-13_09:23:21
#******************************************
#
# CIF file created by Zeo++
# Zeo++ is an open source package to
# analyze microporous materials
#
#*******************************************

_cell_length_a		45.5243   
_cell_length_b		45.8228   
_cell_length_c		7   
_cell_angle_alpha		90   
_cell_angle_beta		90   
_cell_angle_gamma		119.715   

_symmetry_space_group_name_H-M		'P1'
_symmetry_Int_Tables_number		1
_symmetry_cell_setting		Monoclinic

loop_
_symmetry_equiv_pos_as_xyz
'+x,+y,+z'

loop_
_atom_site_label
_atom_site_type_symbol
_atom_site_fract_x
_atom_site_fract_y
_atom_site_fract_z
1	C	0.367375	0.673777	0.999995
2	O	0.397221	0.679006	0.999991
3	C	0.340417	0.638837	0.999998
4	C	0.345675	0.613083	0
5	N	0.379084	0.619105	0
6	C	0.305902	0.632635	3e-06
7	O	0.281673	0.60252	5e-06
8	C	0.29759	0.659506	6e-06
9	C	0.265827	0.653022	5e-06
10	N	0.239596	0.618758	0
11	C	0.325846	0.694167	4e-06
12	O	0.319239	0.717404	7e-06
13	C	0.360916	0.701926	0.999999
14	C	0.385825	0.733547	0.999998
15	N	0.380794	0.761616	0
16	H	0.325037	0.588011	1e-06
17	H	0.259113	0.672269	8e-06
18	H	0.411038	0.738062	0.999997
19	C	0.632625	0.326223	0.999995
20	O	0.602779	0.320994	0.999991
21	C	0.659583	0.361163	0.999998
22	C	0.654325	0.386917	0
23	N	0.620916	0.380895	0
24	C	0.694098	0.367365	3e-06
25	O	0.718327	0.39748	5e-06
26	C	0.70241	0.340494	6e-06
27	C	0.734173	0.346978	5e-06
28	N	0.760404	0.381242	0
29	C	0.674154	0.305833	4e-06
30	O	0.680761	0.282596	7e-06
31	C	0.639084	0.298074	0.999999
32	C	0.614175	0.266453	0.999998
33	N	0.619206	0.238384	0
34	H	0.674963	0.411989	1e-06
35	H	0.740887	0.327731	8e-06
36	H	0.588962	0.261938	0.999997
37	C	0.399491	0.599003	0
38	C	0.393047	0.602625	0.187022
39	S	0.410502	0.586004	0.337457
40	C	0.426737	0.573754	0.15126
41	C	0.446293	0.556982	0.179528
42	C	0.468342	0.555278	0.050483
43	C	0.483453	0.536607	0.121115
44	C	0.472979	0.524062	0.303796
45	C	0.48296	0.504281	0.415115
46	C	0.476779	0.498105	0.602915
47	C	0.491038	0.476856	0.674134
48	C	0.506782	0.471579	0.496718
49	C	0.524214	0.452959	0.479404
50	C	0.530087	0.435641	0.622636
51	C	0.54831	0.41956	0.559304
52	C	0.556362	0.424629	0.36734
53	C	0.574608	0.412195	0.254648
54	C	0.582249	0.416914	0.061338
55	C	0.600509	0.400997	0
56	C	0.606684	0.384457	0.143589
57	S	0.590192	0.388217	0.355314
58	S	0.541405	0.449027	0.268646
59	C	0.501538	0.487779	0.351692
60	S	0.444307	0.535517	0.383954
61	C	0.41874	0.582624	0.977585
62	H	0.37908	0.614099	0.243571
63	H	0.473824	0.567023	0.910938
64	H	0.501521	0.532728	0.040222
65	H	0.463727	0.50685	0.695109
66	H	0.510058	0.490092	0.78492
67	H	0.470961	0.452962	0.730613
68	H	0.521646	0.43442	0.768652
69	H	0.555021	0.404945	0.652849
70	H	0.575035	0.431164	0.968049
71	H	0.619953	0.370397	0.135729
72	H	0.509429	0.488943	0.205111
73	H	0.426241	0.577346	0.84088
74	C	0.400854	0.80182	0
75	C	0.397256	0.791835	0.187022
76	S	0.413839	0.825653	0.337457
77	C	0.426041	0.853916	0.15126
78	C	0.442763	0.889965	0.179528
79	C	0.444347	0.913502	0.050483
80	C	0.463	0.947036	0.121115
81	C	0.475651	0.949133	0.303796
82	C	0.495449	0.97869	0.415115
83	C	0.501683	0.978707	0.602915
84	C	0.522928	0.01396	0.674134
85	C	0.528135	0.034803	0.496718
86	C	0.546724	0.070586	0.479404
87	C	0.564073	0.093623	0.622636
88	C	0.580109	0.127665	0.559304
89	C	0.574975	0.130602	0.36734
90	C	0.58735	0.16104	0.254648
91	C	0.58257	0.163918	0.061338
92	C	0.598442	0.197833	0
93	C	0.615007	0.220396	0.143589
94	S	0.611328	0.20032	0.355314
95	S	0.550573	0.091527	0.268646
96	C	0.511905	0.013501	0.351692
97	S	0.464318	0.90934	0.383954
98	C	0.417184	0.837174	0.977585
99	H	0.385819	0.76659	0.243571
100	H	0.432528	0.907256	0.910938
101	H	0.466791	0.968793	0.040222
102	H	0.49298	0.957082	0.695109
103	H	0.509535	0.019642	0.78492
104	H	0.547025	0.017827	0.730613
105	H	0.565346	0.086475	0.768652
106	H	0.59474	0.148846	0.652849
107	H	0.568309	0.142604	0.968049
108	H	0.629044	0.247521	0.135729
109	H	0.510692	0.020161	0.205111
110	H	0.422438	0.849853	0.84088
111	C	0.199129	0.598656	0
112	C	0.209172	0.60502	0.187022
113	S	0.175134	0.587823	0.337457
114	C	0.146697	0.571809	0.15126
115	C	0.110419	0.552532	0.179528
116	C	0.086786	0.530699	0.050483
117	C	0.053021	0.515836	0.121115
118	C	0.050845	0.526284	0.303796
119	C	0.021066	0.516509	0.415115
120	C	0.021013	0.522667	0.602915
121	C	0.985508	0.508663	0.674134
122	C	0.964558	0.493097	0.496718
123	C	0.928537	0.475934	0.479404
124	C	0.905315	0.470215	0.622636
125	C	0.871056	0.452254	0.559304
126	C	0.868138	0.444249	0.36734
127	C	0.837517	0.426244	0.254648
128	C	0.834655	0.418647	0.061338
129	C	0.800524	0.400649	0
130	C	0.777784	0.394626	0.143589
131	S	0.797955	0.410942	0.355314
132	S	0.907497	0.458926	0.268646
133	C	0.986032	0.498199	0.351692
134	S	0.09085	0.554622	0.383954
135	C	0.163551	0.579681	0.977585
136	H	0.234575	0.61879	0.243571
137	H	0.093123	0.525201	0.910938
138	H	0.031163	0.497958	0.040222
139	H	0.042767	0.535547	0.695109
140	H	0.979882	0.489745	0.78492
141	H	0.981488	0.528689	0.730613
142	H	0.912482	0.478583	0.768652
143	H	0.849714	0.445689	0.652849
144	H	0.85613	0.425712	0.968049
145	H	0.750478	0.381561	0.135729
146	H	0.979354	0.490375	0.205111
147	H	0.150796	0.57228	0.84088
