data_C66H24N12O6S12_2023-05-13_10:46:17
#******************************************
#
# CIF file created by Zeo++
# Zeo++ is an open source package to
# analyze microporous materials
#
#*******************************************

_cell_length_a		43.5567   
_cell_length_b		43.8552   
_cell_length_c		7   
_cell_angle_alpha		90   
_cell_angle_beta		90   
_cell_angle_gamma		119.703   

_symmetry_space_group_name_H-M		'P1'
_symmetry_Int_Tables_number		1
_symmetry_cell_setting		Monoclinic

loop_
_symmetry_equiv_pos_as_xyz
'+x,+y,+z'

loop_
_atom_site_label
_atom_site_type_symbol
_atom_site_fract_x
_atom_site_fract_y
_atom_site_fract_z
1	C	0.368911	0.674095	0.999995
2	O	0.400103	0.679557	0.999991
3	C	0.340745	0.637592	0.999998
4	C	0.346247	0.610686	0
5	N	0.381163	0.616978	0
6	C	0.304672	0.631113	3e-06
7	O	0.279357	0.599651	5e-06
8	C	0.295977	0.659186	6e-06
9	C	0.262782	0.652411	5e-06
10	N	0.235375	0.616615	0
11	C	0.3255	0.695397	4e-06
12	O	0.318589	0.719674	7e-06
13	C	0.362153	0.703503	0.999999
14	C	0.388178	0.736538	0.999998
15	N	0.382913	0.765863	0
16	H	0.324683	0.584493	1e-06
17	H	0.255759	0.672519	8e-06
18	H	0.414529	0.741256	0.999997
19	C	0.631089	0.325905	0.999995
20	O	0.599897	0.320443	0.999991
21	C	0.659255	0.362408	0.999998
22	C	0.653753	0.389314	0
23	N	0.618837	0.383022	0
24	C	0.695328	0.368887	3e-06
25	O	0.720643	0.400349	5e-06
26	C	0.704023	0.340814	6e-06
27	C	0.737218	0.347589	5e-06
28	N	0.764625	0.383385	0
29	C	0.6745	0.304603	4e-06
30	O	0.681411	0.280326	7e-06
31	C	0.637847	0.296497	0.999999
32	C	0.611822	0.263462	0.999998
33	N	0.617087	0.234137	0
34	H	0.675317	0.415507	1e-06
35	H	0.744241	0.327481	8e-06
36	H	0.585471	0.258744	0.999997
37	C	0.597502	0.404023	0
38	C	0.592326	0.409119	0.187664
39	C	0.573354	0.427793	0.203449
40	C	0.564811	0.436203	0.027604
41	C	0.545717	0.454998	0.998475
42	N	0.534664	0.465879	0.144964
43	C	0.517184	0.483085	0.082184
44	C	0.501933	0.498097	0.197705
45	C	0.484997	0.514768	0.115373
46	C	0.482816	0.516915	0.91782
47	C	0.498067	0.501903	0.802299
48	C	0.515003	0.485232	0.88463
49	S	0.535619	0.464938	0.777963
50	N	0.465336	0.534121	0.855039
51	C	0.454283	0.545002	0.001528
52	C	0.435189	0.563797	0.972398
53	C	0.426646	0.572207	0.796553
54	C	0.407674	0.590881	0.812336
55	C	0.402498	0.595977	0
56	S	0.419817	0.578928	0.154764
57	S	0.464381	0.535062	0.22204
58	S	0.580183	0.421071	0.845237
59	H	0.601432	0.400156	0.307751
60	H	0.566187	0.434849	0.338054
61	H	0.503501	0.496554	0.352014
62	H	0.496499	0.503446	0.647989
63	H	0.433813	0.565151	0.661948
64	H	0.398569	0.599844	0.692249
65	C	0.595397	0.191772	0
66	C	0.590313	0.181582	0.187664
67	C	0.571679	0.144232	0.203449
68	C	0.563288	0.127413	0.027604
69	C	0.544534	0.089822	0.998475
70	N	0.533678	0.068062	0.144964
71	C	0.516509	0.033648	0.082184
72	C	0.501531	0.003625	0.197705
73	C	0.484897	0.970283	0.115373
74	C	0.482755	0.965989	0.91782
75	C	0.497733	0.996012	0.802299
76	C	0.514367	0.029354	0.88463
77	S	0.534617	0.069943	0.777963
78	N	0.465586	0.931576	0.855039
79	C	0.45473	0.909815	0.001528
80	C	0.435976	0.872224	0.972398
81	C	0.427585	0.855405	0.796553
82	C	0.408952	0.818056	0.812336
83	C	0.403868	0.807866	0
84	S	0.420878	0.841961	0.154764
85	S	0.464647	0.929694	0.22204
86	S	0.578386	0.157676	0.845237
87	H	0.599255	0.199508	0.307751
88	H	0.564639	0.130122	0.338054
89	H	0.503071	0.006711	0.352014
90	H	0.496194	0.992926	0.647989
91	H	0.434625	0.869516	0.661948
92	H	0.400008	0.80013	0.692249
93	C	0.806553	0.40366	0
94	C	0.816813	0.408755	0.187664
95	C	0.854418	0.42743	0.203449
96	C	0.871352	0.43584	0.027604
97	C	0.9092	0.454635	0.998475
98	N	0.931109	0.465516	0.144964
99	C	0.965758	0.482722	0.082184
100	C	0.995986	0.497734	0.197705
101	C	0.029557	0.514405	0.115373
102	C	0.03388	0.516552	0.91782
103	C	0.003652	0.50154	0.802299
104	C	0.970081	0.484869	0.88463
105	S	0.929215	0.464575	0.777963
106	N	0.068529	0.533758	0.855039
107	C	0.090438	0.544639	0.001528
108	C	0.128286	0.563434	0.972398
109	C	0.14522	0.571844	0.796553
110	C	0.182825	0.590519	0.812336
111	C	0.193085	0.595614	0
112	S	0.158756	0.578566	0.154764
113	S	0.070423	0.534699	0.22204
114	S	0.840882	0.420708	0.845237
115	H	0.798764	0.399792	0.307751
116	H	0.868625	0.434485	0.338054
117	H	0.992879	0.496191	0.352014
118	H	0.006759	0.503084	0.647989
119	H	0.131013	0.564788	0.661948
120	H	0.200874	0.599482	0.692249
