data_C78H36N6O6S15_2023-05-13_23:34:22
#******************************************
#
# CIF file created by Zeo++
# Zeo++ is an open source package to
# analyze microporous materials
#
#*******************************************

_cell_length_a		47.5286   
_cell_length_b		47.8271   
_cell_length_c		7   
_cell_angle_alpha		90   
_cell_angle_beta		90   
_cell_angle_gamma		119.727   

_symmetry_space_group_name_H-M		'P1'
_symmetry_Int_Tables_number		1
_symmetry_cell_setting		Monoclinic

loop_
_symmetry_equiv_pos_as_xyz
'+x,+y,+z'

loop_
_atom_site_label
_atom_site_type_symbol
_atom_site_fract_x
_atom_site_fract_y
_atom_site_fract_z
1	C	0.365941	0.67348	0.999995
2	O	0.394529	0.67849	0.999991
3	C	0.340112	0.64	0.999998
4	C	0.345142	0.615322	0
5	N	0.377144	0.621093	0
6	C	0.307051	0.634057	3e-06
7	O	0.283837	0.605201	5e-06
8	C	0.299095	0.659805	6e-06
9	C	0.268671	0.653592	5e-06
10	N	0.243538	0.62076	0
11	C	0.326168	0.693018	4e-06
12	O	0.319845	0.715284	7e-06
13	C	0.359761	0.700453	0.999999
14	C	0.383626	0.730752	0.999998
15	N	0.378815	0.757648	0
16	H	0.325369	0.591299	1e-06
17	H	0.262244	0.672034	8e-06
18	H	0.407777	0.735078	0.999997
19	C	0.634059	0.32652	0.999995
20	O	0.605471	0.32151	0.999991
21	C	0.659888	0.36	0.999998
22	C	0.654858	0.384678	0
23	N	0.622856	0.378907	0
24	C	0.692949	0.365943	3e-06
25	O	0.716163	0.394799	5e-06
26	C	0.700905	0.340195	6e-06
27	C	0.731329	0.346408	5e-06
28	N	0.756462	0.37924	0
29	C	0.673832	0.306982	4e-06
30	O	0.680155	0.284716	7e-06
31	C	0.640239	0.299547	0.999999
32	C	0.616374	0.269248	0.999998
33	N	0.621185	0.242352	0
34	H	0.674631	0.408701	1e-06
35	H	0.737756	0.327966	8e-06
36	H	0.592223	0.264922	0.999997
37	C	0.396686	0.601831	0
38	C	0.40319	0.595422	0.819817
39	S	0.424041	0.574872	0.827516
40	C	0.42445	0.574466	0.073988
41	C	0.439487	0.559645	0.184073
42	C	0.44086	0.558292	0.381332
43	C	0.457403	0.541986	0.446138
44	C	0.468324	0.531222	0.296733
45	C	0.487485	0.512335	0.319029
46	C	0.495307	0.504625	0.4929
47	S	0.516062	0.484168	0.46919
48	C	0.515063	0.485152	0.2237
49	C	0.529411	0.47101	0.101703
50	C	0.529606	0.470817	0.904138
51	C	0.545724	0.45493	0.826388
52	C	0.557743	0.443085	0.96511
53	C	0.575329	0.425751	0.939245
54	C	0.587367	0.413888	0.078705
55	C	0.603314	0.398169	0
56	C	0.603449	0.398034	0.804393
57	S	0.584044	0.41716	0.714703
58	S	0.54903	0.451673	0.188173
59	C	0.498898	0.501086	0.164607
60	S	0.458576	0.540829	0.081619
61	C	0.408666	0.590022	0.146134
62	H	0.396856	0.601667	0.684296
63	H	0.430505	0.568498	0.477591
64	H	0.460829	0.538609	0.595478
65	H	0.490034	0.509823	0.634372
66	H	0.518714	0.481552	0.816355
67	H	0.548169	0.45252	0.674283
68	H	0.584832	0.416387	0.230593
69	H	0.613864	0.387768	0.709451
70	H	0.495333	0.5046	0.015683
71	H	0.405847	0.592798	0.297238
72	C	0.398038	0.796171	0
73	C	0.404434	0.808991	0.819817
74	S	0.424943	0.850093	0.827516
75	C	0.425348	0.850903	0.073988
76	C	0.440139	0.880544	0.184073
77	C	0.441489	0.883251	0.381332
78	C	0.457761	0.915862	0.446138
79	C	0.468504	0.937391	0.296733
80	C	0.487353	0.975163	0.319029
81	C	0.495047	0.990583	0.4929
82	S	0.515463	0.031498	0.46919
83	C	0.514481	0.029529	0.2237
84	C	0.528594	0.057813	0.101703
85	C	0.528787	0.058197	0.904138
86	C	0.544641	0.089972	0.826388
87	C	0.556463	0.113663	0.96511
88	C	0.573761	0.14833	0.939245
89	C	0.585601	0.172059	0.078705
90	C	0.601288	0.203496	0
91	C	0.601422	0.203763	0.804393
92	S	0.582336	0.165512	0.714703
93	S	0.547892	0.096487	0.188173
94	C	0.498579	0.997662	0.164607
95	S	0.458916	0.918175	0.081619
96	C	0.409823	0.819789	0.146134
97	H	0.398202	0.796503	0.684296
98	H	0.431304	0.862839	0.477591
99	H	0.461132	0.922615	0.595478
100	H	0.48986	0.980189	0.634372
101	H	0.518073	0.036727	0.816355
102	H	0.547047	0.094792	0.674283
103	H	0.583106	0.167061	0.230593
104	H	0.611668	0.224295	0.709451
105	H	0.495073	0.990634	0.015683
106	H	0.407052	0.814234	0.297238
107	C	0.204773	0.601498	0
108	C	0.191873	0.595088	0.819817
109	S	0.150513	0.574536	0.827516
110	C	0.149699	0.574132	0.073988
111	C	0.119872	0.559312	0.184073
112	C	0.117148	0.557958	0.381332
113	C	0.084332	0.541653	0.446138
114	C	0.062668	0.530888	0.296733
115	C	0.02466	0.512003	0.319029
116	C	0.009143	0.504293	0.4929
117	S	0.967971	0.483835	0.46919
118	C	0.969953	0.48482	0.2237
119	C	0.941491	0.470678	0.101703
120	C	0.941104	0.470486	0.904138
121	C	0.909131	0.454599	0.826388
122	C	0.885291	0.442753	0.96511
123	C	0.850407	0.42542	0.939245
124	C	0.82653	0.413554	0.078705
125	C	0.794895	0.397836	0
126	C	0.794626	0.397703	0.804393
127	S	0.833118	0.41683	0.714703
128	S	0.902574	0.45134	0.188173
129	C	0.00202	0.500753	0.164607
130	S	0.082005	0.540496	0.081619
131	C	0.181008	0.58969	0.146134
132	H	0.204439	0.601331	0.684296
133	H	0.137688	0.568164	0.477591
134	H	0.077537	0.538276	0.595478
135	H	0.019602	0.50949	0.634372
136	H	0.96271	0.481222	0.816355
137	H	0.90428	0.452189	0.674283
138	H	0.831559	0.416053	0.230593
139	H	0.773966	0.387438	0.709451
140	H	0.009091	0.504267	0.015683
141	H	0.186597	0.592468	0.297238
