data_C81H42N6O6S12_2023-05-15_11:39:30
#******************************************
#
# CIF file created by Zeo++
# Zeo++ is an open source package to
# analyze microporous materials
#
#*******************************************

_cell_length_a		47.7412   
_cell_length_b		48.0397   
_cell_length_c		7   
_cell_angle_alpha		90   
_cell_angle_beta		90   
_cell_angle_gamma		119.729   

_symmetry_space_group_name_H-M		'P1'
_symmetry_Int_Tables_number		1
_symmetry_cell_setting		Monoclinic

loop_
_symmetry_equiv_pos_as_xyz
'+x,+y,+z'

loop_
_atom_site_label
_atom_site_type_symbol
_atom_site_fract_x
_atom_site_fract_y
_atom_site_fract_z
1	C	0.365796	0.67345	0.999995
2	O	0.394257	0.678438	0.999991
3	C	0.340081	0.640118	0.999998
4	C	0.345088	0.615549	0
5	N	0.376947	0.621294	0
6	C	0.307167	0.634201	3e-06
7	O	0.284056	0.605472	5e-06
8	C	0.299248	0.659836	6e-06
9	C	0.268959	0.65365	5e-06
10	N	0.243937	0.620963	0
11	C	0.326201	0.692901	4e-06
12	O	0.319906	0.715069	7e-06
13	C	0.359644	0.700303	0.999999
14	C	0.383404	0.730469	0.999998
15	N	0.378615	0.757246	0
16	H	0.325402	0.591631	1e-06
17	H	0.262561	0.672011	8e-06
18	H	0.407448	0.734776	0.999997
19	C	0.634204	0.32655	0.999995
20	O	0.605743	0.321562	0.999991
21	C	0.659919	0.359882	0.999998
22	C	0.654912	0.384451	0
23	N	0.623053	0.378706	0
24	C	0.692833	0.365799	3e-06
25	O	0.715944	0.394528	5e-06
26	C	0.700752	0.340164	6e-06
27	C	0.731041	0.34635	5e-06
28	N	0.756063	0.379037	0
29	C	0.673799	0.307099	4e-06
30	O	0.680094	0.284931	7e-06
31	C	0.640356	0.299697	0.999999
32	C	0.616596	0.269531	0.999998
33	N	0.621385	0.242754	0
34	H	0.674598	0.408369	1e-06
35	H	0.737439	0.327989	8e-06
36	H	0.592552	0.265224	0.999997
37	C	0.603598	0.397883	0
38	C	0.599294	0.402197	0.811211
39	C	0.582031	0.419242	0.790362
40	C	0.573798	0.427306	0.963718
41	C	0.556302	0.44456	0.991272
42	C	0.544555	0.456111	0.849991
43	C	0.528411	0.472041	0.924132
44	C	0.527765	0.47272	0.121969
45	C	0.513632	0.486674	0.240944
46	C	0.513937	0.486448	0.433063
47	C	0.496981	0.503161	0.511292
48	C	0.486575	0.513334	0.332935
49	C	0.469205	0.530418	0.320677
50	C	0.458249	0.541172	0.47108
51	C	0.441658	0.557503	0.411398
52	C	0.439957	0.559211	0.215027
53	C	0.425045	0.573904	0.104238
54	C	0.42332	0.575629	0.906981
55	C	0.406726	0.591974	0.846448
56	C	0.396402	0.602117	0
57	S	0.406171	0.592472	0.212304
58	S	0.458748	0.540742	0.10778
59	C	0.496644	0.503367	0.181364
60	S	0.547286	0.453499	0.21198
61	S	0.587489	0.413727	0.14998
62	H	0.607865	0.39378	0.69361
63	H	0.576038	0.425208	0.652786
64	H	0.547215	0.453453	0.698565
65	H	0.517677	0.482601	0.834271
66	H	0.524561	0.47603	0.52415
67	H	0.513456	0.523913	0.59743
68	H	0.476173	0.486737	0.597761
69	H	0.461925	0.537531	0.619704
70	H	0.431528	0.567451	0.510595
71	H	0.433476	0.565645	0.808182
72	H	0.402811	0.595848	0.698772
73	H	0.493135	0.50676	0.032651
74	C	0.601576	0.204069	0
75	C	0.59727	0.195513	0.811211
76	C	0.580259	0.161452	0.790362
77	C	0.572212	0.145273	0.963718
78	C	0.554993	0.110773	0.991272
79	C	0.543465	0.087642	0.849991
80	C	0.527567	0.055799	0.924132
81	C	0.526889	0.054483	0.121969
82	C	0.512963	0.026599	0.240944
83	C	0.513189	0.027126	0.433063
84	C	0.496509	0.993699	0.511292
85	C	0.486357	0.973269	0.332935
86	C	0.469307	0.939061	0.320677
87	C	0.458575	0.917508	0.47108
88	C	0.442277	0.884823	0.411398
89	C	0.440572	0.881438	0.215027
90	C	0.425909	0.852047	0.104238
91	C	0.424188	0.848622	0.906981
92	C	0.407876	0.81592	0.846448
93	C	0.397753	0.7956	0
94	S	0.407379	0.814874	0.212304
95	S	0.459004	0.918431	0.10778
96	C	0.496304	0.99316	0.181364
97	S	0.546071	0.092947	0.21198
98	S	0.585764	0.172346	0.14998
99	H	0.605669	0.212378	0.69361
100	H	0.574305	0.149579	0.652786
101	H	0.546117	0.092922	0.698565
102	H	0.517028	0.034658	0.834271
103	H	0.523585	0.048016	0.52415
104	H	0.475594	0.989389	0.59743
105	H	0.513104	0.989411	0.597761
106	H	0.462209	0.924773	0.619704
107	H	0.43235	0.86489	0.510595
108	H	0.434152	0.868617	0.808182
109	H	0.404009	0.808187	0.698772
110	H	0.492919	0.986308	0.032651
111	C	0.794325	0.397551	0
112	C	0.802935	0.401793	0.811211
113	C	0.837209	0.418809	0.790362
114	C	0.853489	0.426925	0.963718
115	C	0.888204	0.444171	0.991272
116	C	0.91148	0.455751	0.849991
117	C	0.943521	0.471663	0.924132
118	C	0.944845	0.4723	0.121969
119	C	0.972904	0.486231	0.240944
120	C	0.972374	0.48593	0.433063
121	C	0.006009	0.502643	0.511292
122	C	0.026567	0.512901	0.332935
123	C	0.060987	0.530023	0.320677
124	C	0.082675	0.540823	0.47108
125	C	0.115564	0.557177	0.411398
126	C	0.11897	0.558853	0.215027
127	C	0.148545	0.573552	0.104238
128	C	0.151991	0.575252	0.906981
129	C	0.184897	0.591609	0.846448
130	C	0.205344	0.601786	0
131	S	0.18595	0.592157	0.212304
132	S	0.081746	0.54033	0.10778
133	C	0.006551	0.502976	0.181364
134	S	0.906142	0.453058	0.21198
135	S	0.826246	0.41343	0.14998
136	H	0.785965	0.393345	0.69361
137	H	0.849156	0.424717	0.652786
138	H	0.906167	0.453128	0.698565
139	H	0.964794	0.482244	0.834271
140	H	0.951353	0.475457	0.52415
141	H	0.010449	0.486202	0.59743
142	H	0.010222	0.523355	0.597761
143	H	0.075364	0.537199	0.619704
144	H	0.135621	0.567162	0.510595
145	H	0.131872	0.565242	0.808182
146	H	0.192679	0.595468	0.698772
147	H	0.013446	0.506436	0.032651
