data_C105H51N9O6S18_2023-05-12_03:28:13
#******************************************
#
# CIF file created by Zeo++
# Zeo++ is an open source package to
# analyze microporous materials
#
#*******************************************

_cell_length_a		58.1484   
_cell_length_b		58.4468   
_cell_length_c		7   
_cell_angle_alpha		90   
_cell_angle_beta		90   
_cell_angle_gamma		119.777   

_symmetry_space_group_name_H-M		'P1'
_symmetry_Int_Tables_number		1
_symmetry_cell_setting		Monoclinic

loop_
_symmetry_equiv_pos_as_xyz
'+x,+y,+z'

loop_
_atom_site_label
_atom_site_type_symbol
_atom_site_fract_x
_atom_site_fract_y
_atom_site_fract_z
1	C	0.359991	0.672245	0.999995
2	O	0.383363	0.676346	0.999991
3	C	0.338852	0.644834	0.999998
4	C	0.342944	0.624631	0
5	N	0.369105	0.629355	0
6	C	0.311824	0.639969	3e-06
7	O	0.292826	0.616344	5e-06
8	C	0.305343	0.661049	6e-06
9	C	0.28047	0.655962	5e-06
10	N	0.2599	0.629083	0
11	C	0.327498	0.68824	4e-06
12	O	0.322348	0.70647	7e-06
13	C	0.354962	0.694327	0.999999
14	C	0.374494	0.719133	0.999998
15	N	0.370583	0.741153	0
16	H	0.326762	0.604962	1e-06
17	H	0.275232	0.671061	8e-06
18	H	0.394238	0.722676	0.999997
19	C	0.640009	0.327755	0.999995
20	O	0.616637	0.323654	0.999991
21	C	0.661148	0.355166	0.999998
22	C	0.657056	0.375369	0
23	N	0.630895	0.370645	0
24	C	0.688176	0.360031	3e-06
25	O	0.707174	0.383656	5e-06
26	C	0.694657	0.338951	6e-06
27	C	0.71953	0.344038	5e-06
28	N	0.7401	0.370917	0
29	C	0.672502	0.31176	4e-06
30	O	0.677652	0.29353	7e-06
31	C	0.645038	0.305673	0.999999
32	C	0.625506	0.280867	0.999998
33	N	0.629417	0.258847	0
34	H	0.673238	0.395038	1e-06
35	H	0.724768	0.328939	8e-06
36	H	0.605762	0.277324	0.999997
37	C	0.614937	0.386415	0
38	C	0.61162	0.367373	0.128863
39	S	0.597778	0.370331	0.336157
40	C	0.596272	0.397319	0.253328
41	C	0.585537	0.410698	0.365116
42	C	0.575049	0.425741	0.29489
43	C	0.566293	0.436645	0.441528
44	C	0.553401	0.454491	0.406756
45	C	0.545021	0.464943	0.54894
46	C	0.53416	0.480259	0.473817
47	C	0.53464	0.481218	0.276319
48	C	0.525023	0.494561	0.148633
49	C	0.501723	0.494868	0.188857
50	N	0.491584	0.50697	0.080338
51	C	0.505147	0.519683	0.921326
52	C	0.493525	0.532383	0.805667
53	C	0.495522	0.537206	0.610958
54	C	0.481625	0.550341	0.550263
55	C	0.469394	0.555297	0.700222
56	C	0.452517	0.569559	0.681882
57	C	0.448273	0.578589	0.511461
58	S	0.429275	0.593155	0.538857
59	C	0.42627	0.587663	0.781445
60	C	0.411324	0.596018	0.900208
61	C	0.397221	0.608273	0.843881
62	C	0.385063	0.613585	0
63	C	0.389782	0.605542	0.172043
64	S	0.409165	0.591387	0.144497
65	C	0.439795	0.574798	0.836828
66	S	0.474694	0.544072	0.911287
67	C	0.528611	0.520483	0.868597
68	C	0.538593	0.507882	0.983673
69	S	0.548113	0.463202	0.18532
70	C	0.570487	0.429625	0.620327
71	S	0.58474	0.410174	0.610427
72	C	0.606198	0.403599	0.069048
73	H	0.61655	0.351914	0.112792
74	H	0.57354	0.428654	0.14362
75	H	0.546426	0.461997	0.700227
76	H	0.52654	0.490241	0.562075
77	H	0.489826	0.484888	0.313738
78	H	0.506286	0.531409	0.514465
79	H	0.480858	0.555669	0.403283
80	H	0.455272	0.577503	0.370645
81	H	0.395693	0.613202	0.697018
82	H	0.382921	0.607197	0.312154
83	H	0.440608	0.569285	0.983363
84	H	0.539397	0.530945	0.741612
85	H	0.557143	0.508904	0.943506
86	H	0.565991	0.434785	0.758094
87	H	0.607269	0.419931	0.988577
88	C	0.613122	0.227035	0
89	C	0.632233	0.242697	0.128863
90	S	0.629329	0.226013	0.336157
91	C	0.60227	0.197651	0.253328
92	C	0.588901	0.173676	0.365116
93	C	0.573861	0.148289	0.29489
94	C	0.562965	0.128743	0.441528
95	C	0.545126	0.098179	0.406756
96	C	0.53468	0.079454	0.54894
97	C	0.51937	0.053426	0.473817
98	C	0.518406	0.052948	0.276319
99	C	0.505067	0.030118	0.148633
100	C	0.504864	0.006683	0.188857
101	N	0.492772	0.984571	0.080338
102	C	0.479961	0.985378	0.921326
103	C	0.467277	0.961199	0.805667
104	C	0.462431	0.95838	0.610958
105	C	0.44932	0.931508	0.550263
106	C	0.444405	0.914433	0.700222
107	C	0.430178	0.883482	0.681882
108	C	0.421141	0.87028	0.511461
109	S	0.406618	0.83692	0.538857
110	C	0.412139	0.839404	0.781445
111	C	0.403827	0.81625	0.900208
112	C	0.3916	0.790051	0.843881
113	C	0.386327	0.772693	0
114	C	0.394373	0.785385	0.172043
115	S	0.408481	0.818718	0.144497
116	C	0.424981	0.865638	0.836828
117	S	0.455639	0.93087	0.911287
118	C	0.479054	0.007874	0.868597
119	C	0.491646	0.030327	0.983673
120	S	0.536413	0.084257	0.18532
121	C	0.569987	0.139894	0.620327
122	S	0.589429	0.173406	0.610427
123	C	0.595927	0.201252	0.069048
124	H	0.647715	0.262982	0.112792
125	H	0.570947	0.143891	0.14362
126	H	0.537629	0.083781	0.700227
127	H	0.509393	0.035924	0.562075
128	H	0.514925	0.004809	0.313738
129	H	0.468197	0.974836	0.514465
130	H	0.443981	0.925443	0.403283
131	H	0.422199	0.878309	0.370645
132	H	0.386664	0.783627	0.697018
133	H	0.392743	0.776926	0.312154
134	H	0.430506	0.871934	0.983363
135	H	0.468514	0.008166	0.741612
136	H	0.490539	0.047725	0.943506
137	H	0.564832	0.130294	0.758094
138	H	0.579544	0.186057	0.988577
139	C	0.771529	0.386142	0
140	C	0.755736	0.389521	0.128863
141	S	0.772481	0.403248	0.336157
142	C	0.801046	0.404622	0.253328
143	C	0.82515	0.415218	0.365116
144	C	0.850678	0.425562	0.29489
145	C	0.87033	0.434204	0.441528
146	C	0.901061	0.446922	0.406756
147	C	0.919887	0.455194	0.54894
148	C	0.946059	0.465907	0.473817
149	C	0.946543	0.465425	0.276319
150	C	0.969499	0.474912	0.148633
151	C	0.993002	0.49804	0.188857
152	N	0.015233	0.50805	0.080338
153	C	0.01448	0.49453	0.921326
154	C	0.038786	0.50601	0.805667
155	C	0.041635	0.504005	0.610958
156	C	0.068643	0.517742	0.550263
157	C	0.08579	0.529861	0.700222
158	C	0.116894	0.546551	0.681882
159	C	0.130175	0.550723	0.511461
160	S	0.163696	0.569516	0.538857
161	C	0.16118	0.572524	0.781445
162	C	0.184438	0.587323	0.900208
163	C	0.210768	0.601267	0.843881
164	C	0.228199	0.613313	0
165	C	0.215434	0.608664	0.172043
166	S	0.181942	0.589486	0.144497
167	C	0.134812	0.559156	0.836828
168	S	0.069255	0.52465	0.911287
169	C	0.991924	0.471235	0.868597
170	C	0.96935	0.461382	0.983673
171	S	0.915063	0.452132	0.18532
172	C	0.859115	0.430073	0.620327
173	S	0.825419	0.416011	0.610427
174	C	0.797464	0.39474	0.069048
175	H	0.735323	0.384695	0.112792
176	H	0.855102	0.427046	0.14362
177	H	0.915534	0.453813	0.700227
178	H	0.963656	0.473426	0.562075
179	H	0.994837	0.509894	0.313738
180	H	0.025106	0.493347	0.514465
181	H	0.074749	0.518479	0.403283
182	H	0.122117	0.54378	0.370645
183	H	0.217232	0.602762	0.697018
184	H	0.223925	0.615468	0.312154
185	H	0.128474	0.558373	0.983363
186	H	0.991678	0.46048	0.741612
187	H	0.951906	0.442963	0.943506
188	H	0.868766	0.434513	0.758094
189	H	0.812776	0.393603	0.988577
