data_C66H30N6O6S12_2023-05-28_23:47:55
#******************************************
#
# CIF file created by Zeo++
# Zeo++ is an open source package to
# analyze microporous materials
#
#*******************************************

_cell_length_a		40.1212   
_cell_length_b		40.4197   
_cell_length_c		7   
_cell_angle_alpha		90   
_cell_angle_beta		90   
_cell_angle_gamma		119.677   

_symmetry_space_group_name_H-M		'P1'
_symmetry_Int_Tables_number		1
_symmetry_cell_setting		Monoclinic

loop_
_symmetry_equiv_pos_as_xyz
'+x,+y,+z'

loop_
_atom_site_label
_atom_site_type_symbol
_atom_site_fract_x
_atom_site_fract_y
_atom_site_fract_z
1	C	0.371953	0.674724	0.999995
2	O	0.405813	0.68065	0.999991
3	C	0.341395	0.635129	0.999998
4	C	0.347384	0.605943	0
5	N	0.385286	0.612768	0
6	C	0.302237	0.628101	3e-06
7	O	0.274772	0.593973	5e-06
8	C	0.292782	0.658552	6e-06
9	C	0.256748	0.651204	5e-06
10	N	0.227015	0.612374	0
11	C	0.324813	0.697831	4e-06
12	O	0.317296	0.724165	7e-06
13	C	0.3646	0.706624	0.999999
14	C	0.392835	0.742458	0.999998
15	N	0.387103	0.774267	0
16	H	0.323988	0.577531	1e-06
17	H	0.249113	0.673015	8e-06
18	H	0.42144	0.747575	0.999997
19	C	0.628047	0.325276	0.999995
20	O	0.594187	0.31935	0.999991
21	C	0.658605	0.364871	0.999998
22	C	0.652616	0.394057	0
23	N	0.614714	0.387232	0
24	C	0.697763	0.371899	3e-06
25	O	0.725228	0.406027	5e-06
26	C	0.707218	0.341448	6e-06
27	C	0.743252	0.348796	5e-06
28	N	0.772985	0.387626	0
29	C	0.675187	0.302169	4e-06
30	O	0.682704	0.275835	7e-06
31	C	0.6354	0.293376	0.999999
32	C	0.607165	0.257542	0.999998
33	N	0.612897	0.225733	0
34	H	0.676012	0.422469	1e-06
35	H	0.750887	0.326985	8e-06
36	H	0.57856	0.252425	0.999997
37	C	0.40846	0.589988	0
38	C	0.401736	0.596597	0.183967
39	C	0.417395	0.581203	0.317323
40	C	0.435474	0.563431	0.230425
41	C	0.454162	0.54506	0.325561
42	C	0.457426	0.541852	0.520477
43	C	0.477515	0.522103	0.568595
44	C	0.489483	0.510338	0.410163
45	C	0.510516	0.489661	0.410163
46	C	0.522483	0.477895	0.568595
47	C	0.542573	0.458147	0.520477
48	C	0.545837	0.45494	0.32556
49	C	0.564526	0.436568	0.230425
50	C	0.582604	0.418796	0.317323
51	C	0.598264	0.403403	0.183967
52	C	0.59154	0.410012	0
53	S	0.567119	0.434018	0.985345
54	S	0.524179	0.476231	0.205342
55	S	0.475821	0.523768	0.205342
56	S	0.43288	0.565981	0.985345
57	H	0.386553	0.611522	0.222772
58	H	0.415282	0.58328	0.470612
59	H	0.446005	0.553079	0.62648
60	H	0.482736	0.516971	0.714449
61	H	0.517262	0.483027	0.714449
62	H	0.553993	0.446919	0.62648
63	H	0.584717	0.416719	0.470612
64	H	0.613447	0.388478	0.222772
65	C	0.409829	0.819828	0
66	C	0.403235	0.806608	0.183967
67	C	0.418592	0.837396	0.317323
68	C	0.436321	0.87294	0.230425
69	C	0.454649	0.909684	0.325561
70	C	0.457849	0.916099	0.520477
71	C	0.47755	0.955597	0.568595
72	C	0.489287	0.979127	0.410163
73	C	0.509914	0.02048	0.410163
74	C	0.521652	0.04401	0.568595
75	C	0.541353	0.083508	0.520477
76	C	0.544553	0.089923	0.32556
77	C	0.56288	0.126667	0.230425
78	C	0.580609	0.162211	0.317323
79	C	0.595966	0.192999	0.183967
80	C	0.589372	0.179779	0
81	S	0.565424	0.131766	0.985345
82	S	0.523312	0.047341	0.205342
83	S	0.475889	0.952266	0.205342
84	S	0.433777	0.867841	0.985345
85	H	0.388346	0.776758	0.222772
86	H	0.41652	0.833242	0.470612
87	H	0.446649	0.893645	0.62648
88	H	0.48267	0.965861	0.714449
89	H	0.516533	0.033746	0.714449
90	H	0.552554	0.105962	0.62648
91	H	0.582682	0.166365	0.470612
92	H	0.610855	0.222849	0.222772
93	C	0.181115	0.589594	0
94	C	0.194433	0.596204	0.183967
95	C	0.163417	0.58081	0.317323
96	C	0.127609	0.563038	0.230425
97	C	0.090593	0.544667	0.325561
98	C	0.08413	0.541459	0.520477
99	C	0.044339	0.52171	0.568595
100	C	0.020634	0.509945	0.410163
101	C	0.978974	0.489269	0.410163
102	C	0.955269	0.477504	0.568595
103	C	0.915478	0.457755	0.520477
104	C	0.909015	0.454547	0.32556
105	C	0.871998	0.436175	0.230425
106	C	0.83619	0.418403	0.317323
107	C	0.805174	0.403009	0.183967
108	C	0.818492	0.409619	0
109	S	0.866861	0.433625	0.985345
110	S	0.951913	0.475837	0.205342
111	S	0.047694	0.523375	0.205342
112	S	0.132747	0.565588	0.985345
113	H	0.224505	0.611129	0.222772
114	H	0.167603	0.582888	0.470612
115	H	0.10675	0.552686	0.62648
116	H	0.033998	0.516578	0.714449
117	H	0.965609	0.482637	0.714449
118	H	0.892857	0.446529	0.62648
119	H	0.832005	0.416326	0.470612
120	H	0.775102	0.388083	0.222772
