data_C102H48N12O6S18_2023-05-13_03:19:17
#******************************************
#
# CIF file created by Zeo++
# Zeo++ is an open source package to
# analyze microporous materials
#
#*******************************************

_cell_length_a		61.8795   
_cell_length_b		62.1779   
_cell_length_c		7   
_cell_angle_alpha		90   
_cell_angle_beta		90   
_cell_angle_gamma		119.79   

_symmetry_space_group_name_H-M		'P1'
_symmetry_Int_Tables_number		1
_symmetry_cell_setting		Monoclinic

loop_
_symmetry_equiv_pos_as_xyz
'+x,+y,+z'

loop_
_atom_site_label
_atom_site_type_symbol
_atom_site_fract_x
_atom_site_fract_y
_atom_site_fract_z
1	C	0.358385	0.671911	0.999995
2	O	0.380349	0.675767	0.999991
3	C	0.338514	0.646142	0.999998
4	C	0.342353	0.627148	0
5	N	0.366939	0.63159	0
6	C	0.313114	0.641568	3e-06
7	O	0.295256	0.619358	5e-06
8	C	0.307029	0.661386	6e-06
9	C	0.283655	0.656603	5e-06
10	N	0.264319	0.631333	0
11	C	0.327856	0.686949	4e-06
12	O	0.323021	0.704086	7e-06
13	C	0.353665	0.692671	0.999999
14	C	0.372025	0.715992	0.999998
15	N	0.368356	0.736693	0
16	H	0.327142	0.608657	1e-06
17	H	0.278736	0.670798	8e-06
18	H	0.39058	0.719322	0.999997
19	C	0.641615	0.328089	0.999995
20	O	0.619651	0.324233	0.999991
21	C	0.661486	0.353858	0.999998
22	C	0.657647	0.372852	0
23	N	0.633061	0.36841	0
24	C	0.686886	0.358432	3e-06
25	O	0.704744	0.380642	5e-06
26	C	0.692971	0.338614	6e-06
27	C	0.716345	0.343397	5e-06
28	N	0.735681	0.368667	0
29	C	0.672144	0.313051	4e-06
30	O	0.676979	0.295914	7e-06
31	C	0.646335	0.307329	0.999999
32	C	0.627975	0.284008	0.999998
33	N	0.631644	0.263307	0
34	H	0.672858	0.391343	1e-06
35	H	0.721264	0.329202	8e-06
36	H	0.60942	0.280678	0.999997
37	C	0.38193	0.616764	0
38	C	0.379636	0.61903	0.192431
39	S	0.393297	0.605517	0.319466
40	C	0.40241	0.596506	0.115808
41	C	0.416014	0.583049	0.119896
42	C	0.423949	0.57519	0.96377
43	C	0.436884	0.562399	0.015642
44	C	0.438748	0.560568	0.211107
45	C	0.450532	0.548918	0.314489
46	C	0.452393	0.547079	0.509942
47	C	0.465329	0.534289	0.562005
48	C	0.473284	0.526423	0.40584
49	C	0.487082	0.512781	0.399641
50	C	0.494478	0.505499	0.563486
51	N	0.507219	0.4929	0.560584
52	C	0.512642	0.487506	0.385261
53	C	0.526424	0.473878	0.388054
54	C	0.534259	0.466153	0.545658
55	C	0.547217	0.453333	0.496442
56	C	0.549211	0.451333	0.301265
57	C	0.561067	0.439595	0.200007
58	C	0.563065	0.437574	0.004912
59	C	0.576044	0.42474	0.955566
60	C	0.583878	0.41704	0.113216
61	C	0.597494	0.403589	0.111777
62	C	0.605159	0.395978	0.951856
63	C	0.61807	0.383236	0
64	C	0.620226	0.381155	0.192863
65	S	0.606465	0.39478	0.317202
66	S	0.575155	0.425708	0.318997
67	S	0.535121	0.465247	0.182258
68	C	0.505258	0.494776	0.221318
69	N	0.492513	0.507378	0.224761
70	S	0.464688	0.534923	0.1981
71	S	0.424593	0.574579	0.327387
72	C	0.394867	0.603969	0.954393
73	H	0.370705	0.627863	0.265296
74	H	0.42077	0.578325	0.816849
75	H	0.444409	0.554947	0.911804
76	H	0.444856	0.554529	0.613691
77	H	0.468452	0.531199	0.709194
78	H	0.490459	0.509501	0.705591
79	H	0.530794	0.469601	0.691239
80	H	0.554657	0.445991	0.601886
81	H	0.555617	0.444905	0.899487
82	H	0.579331	0.421457	0.8093
83	H	0.601645	0.399412	0.806662
84	H	0.629109	0.372399	0.267488
85	H	0.509223	0.490829	0.078833
86	H	0.398485	0.600392	0.809902
87	C	0.383159	0.766344	0
88	C	0.380896	0.761809	0.192431
89	S	0.394388	0.788833	0.319466
90	C	0.403385	0.806855	0.115808
91	C	0.416821	0.833766	0.119896
92	C	0.424668	0.849472	0.96377
93	C	0.437439	0.875055	0.015642
94	C	0.439267	0.878729	0.211107
95	C	0.450899	0.902033	0.314489
96	C	0.452736	0.905713	0.509942
97	C	0.465506	0.931296	0.562005
98	C	0.473359	0.947029	0.40584
99	C	0.48698	0.974315	0.399641
100	C	0.49425	0.988911	0.563486
101	N	0.50683	0.014111	0.560584
102	C	0.512216	0.024868	0.385261
103	C	0.525823	0.052125	0.388054
104	C	0.533535	0.067599	0.545658
105	C	0.546336	0.093234	0.496442
106	C	0.548333	0.097206	0.301265
107	C	0.560052	0.120669	0.200007
108	C	0.562071	0.124665	0.004912
109	C	0.574884	0.150335	0.955566
110	C	0.582573	0.165783	0.113216
111	C	0.596002	0.192699	0.111777
112	C	0.603602	0.20789	0.951856
113	C	0.616324	0.2334	0
114	C	0.618401	0.237613	0.192863
115	S	0.604798	0.21038	0.317202
116	S	0.573918	0.148488	0.318997
117	S	0.53444	0.069357	0.182258
118	C	0.504957	0.010295	0.221318
119	N	0.492375	0.98509	0.224761
120	S	0.464872	0.930028	0.1981
121	S	0.425278	0.850719	0.327387
122	C	0.395934	0.791932	0.954393
123	H	0.372076	0.744144	0.265296
124	H	0.421538	0.843193	0.816849
125	H	0.444879	0.889949	0.911804
126	H	0.445297	0.890808	0.613691
127	H	0.468591	0.937474	0.709194
128	H	0.490255	0.980936	0.705591
129	H	0.530093	0.060724	0.691239
130	H	0.553666	0.107933	0.601886
131	H	0.554751	0.109969	0.899487
132	H	0.578163	0.156868	0.8093
133	H	0.600173	0.20098	0.806662
134	H	0.627144	0.255155	0.267488
135	H	0.508899	0.018165	0.078833
136	H	0.399505	0.799088	0.809902
137	C	0.234525	0.616508	0
138	C	0.239081	0.618776	0.192431
139	S	0.211928	0.605266	0.319466
140	C	0.193819	0.596255	0.115808
141	C	0.166778	0.582801	0.119896
142	C	0.150996	0.574954	0.96377
143	C	0.12529	0.562162	0.015642
144	C	0.121598	0.560318	0.211107
145	C	0.098182	0.548664	0.314489
146	C	0.094485	0.546824	0.509942
147	C	0.068779	0.534032	0.562005
148	C	0.05297	0.526164	0.40584
149	C	0.025552	0.512519	0.399641
150	C	0.010886	0.505205	0.563486
151	N	0.985565	0.492604	0.560584
152	C	0.974755	0.487242	0.385261
153	C	0.947367	0.473612	0.388054
154	C	0.931819	0.465863	0.545658
155	C	0.90606	0.453049	0.496442
156	C	0.90207	0.451077	0.301265
157	C	0.878494	0.439352	0.200007
158	C	0.874478	0.437377	0.004912
159	C	0.848685	0.424541	0.955566
160	C	0.833162	0.416793	0.113216
161	C	0.806117	0.403328	0.111777
162	C	0.790853	0.395748	0.951856
163	C	0.765219	0.38298	0
164	C	0.760986	0.380848	0.192863
165	S	0.788351	0.394456	0.317202
166	S	0.850541	0.42542	0.318997
167	S	0.930052	0.465011	0.182258
168	C	0.989399	0.494545	0.221318
169	N	0.014725	0.507148	0.224761
170	S	0.070053	0.534665	0.1981
171	S	0.149743	0.574317	0.327387
172	C	0.208813	0.603714	0.954393
173	H	0.256832	0.627609	0.265296
174	H	0.157305	0.578098	0.816849
175	H	0.110325	0.55472	0.911804
176	H	0.109461	0.554278	0.613691
177	H	0.062571	0.530943	0.709194
178	H	0.018899	0.509179	0.705591
179	H	0.938727	0.46929	0.691239
180	H	0.89129	0.445691	0.601886
181	H	0.889245	0.444742	0.899487
182	H	0.84212	0.421291	0.8093
183	H	0.797796	0.399224	0.806662
184	H	0.74336	0.372062	0.267488
185	H	0.981491	0.490623	0.078833
186	H	0.201623	0.600136	0.809902
