data_C66H30N6O6S12_2023-05-29_22:16:49
#******************************************
#
# CIF file created by Zeo++
# Zeo++ is an open source package to
# analyze microporous materials
#
#*******************************************

_cell_length_a		41.8889   
_cell_length_b		42.1875   
_cell_length_c		7   
_cell_angle_alpha		90   
_cell_angle_beta		90   
_cell_angle_gamma		119.691   

_symmetry_space_group_name_H-M		'P1'
_symmetry_Int_Tables_number		1
_symmetry_cell_setting		Monoclinic

loop_
_symmetry_equiv_pos_as_xyz
'+x,+y,+z'

loop_
_atom_site_label
_atom_site_type_symbol
_atom_site_fract_x
_atom_site_fract_y
_atom_site_fract_z
1	C	0.370325	0.674388	0.999995
2	O	0.402758	0.680065	0.999991
3	C	0.341047	0.636446	0.999998
4	C	0.346775	0.60848	0
5	N	0.38308	0.61502	0
6	C	0.303539	0.629712	3e-06
7	O	0.277224	0.59701	5e-06
8	C	0.294491	0.658891	6e-06
9	C	0.259976	0.651849	5e-06
10	N	0.231487	0.614642	0
11	C	0.325181	0.69653	4e-06
12	O	0.317988	0.721763	7e-06
13	C	0.363291	0.704955	0.999999
14	C	0.390344	0.739292	0.999998
15	N	0.384862	0.769773	0
16	H	0.324359	0.581254	1e-06
17	H	0.252669	0.67275	8e-06
18	H	0.417743	0.744195	0.999997
19	C	0.629675	0.325612	0.999995
20	O	0.597242	0.319935	0.999991
21	C	0.658953	0.363554	0.999998
22	C	0.653225	0.39152	0
23	N	0.61692	0.38498	0
24	C	0.696461	0.370288	3e-06
25	O	0.722776	0.40299	5e-06
26	C	0.705509	0.341109	6e-06
27	C	0.740024	0.348151	5e-06
28	N	0.768513	0.385358	0
29	C	0.674819	0.30347	4e-06
30	O	0.682012	0.278237	7e-06
31	C	0.636709	0.295045	0.999999
32	C	0.609656	0.260708	0.999998
33	N	0.615138	0.230227	0
34	H	0.675641	0.418746	1e-06
35	H	0.747331	0.32725	8e-06
36	H	0.582257	0.255805	0.999997
37	C	0.594731	0.406809	0
38	C	0.591979	0.409513	0.806151
39	S	0.56883	0.432281	0.752139
40	C	0.562675	0.438339	0.988492
41	C	0.541924	0.458752	0.059737
42	C	0.537005	0.463593	0.249591
43	S	0.513511	0.486703	0.280334
44	C	0.509349	0.490793	0.038254
45	C	0.490639	0.509195	0.961746
46	C	0.474025	0.525549	0.061352
47	C	0.458067	0.54124	0.940263
48	C	0.437321	0.561657	0.011509
49	C	0.421987	0.576733	0.893384
50	C	0.405269	0.593191	0
51	C	0.408028	0.590494	0.193849
52	S	0.431175	0.567724	0.247861
53	C	0.462979	0.536391	0.750409
54	S	0.486469	0.513277	0.719667
55	C	0.525968	0.474444	0.938649
56	C	0.578007	0.423261	0.106616
57	H	0.602248	0.39941	0.693612
58	H	0.545891	0.454855	0.37387
59	H	0.473288	0.526288	0.215886
60	H	0.422653	0.576065	0.738957
61	H	0.397763	0.600602	0.306388
62	H	0.45409	0.545126	0.626131
63	H	0.526711	0.473711	0.784114
64	H	0.577335	0.423924	0.261043
65	C	0.592594	0.186193	0
66	C	0.589897	0.180782	0.806151
67	S	0.56718	0.135242	0.752139
68	C	0.561136	0.123129	0.988492
69	C	0.540771	0.082303	0.059737
70	C	0.53594	0.072622	0.249591
71	S	0.512883	0.026399	0.280334
72	C	0.508803	0.018216	0.038254
73	C	0.490444	0.981408	0.961746
74	C	0.474127	0.94871	0.061352
75	C	0.458473	0.917321	0.940263
76	C	0.438102	0.876495	0.011509
77	C	0.42306	0.846334	0.893384
78	C	0.406641	0.81343	0
79	C	0.409332	0.818841	0.193849
80	S	0.432049	0.864382	0.247861
81	C	0.46331	0.927002	0.750409
82	S	0.486371	0.973224	0.719667
83	C	0.525114	0.050913	0.938649
84	C	0.57618	0.15329	0.106616
85	H	0.599977	0.200988	0.693612
86	H	0.544659	0.090102	0.37387
87	H	0.47339	0.947246	0.215886
88	H	0.423727	0.847657	0.738957
89	H	0.399247	0.798635	0.306388
90	H	0.454595	0.909521	0.626131
91	H	0.525846	0.052378	0.784114
92	H	0.575519	0.151966	0.261043
93	C	0.812105	0.406432	0
94	C	0.817554	0.409139	0.806151
95	S	0.863419	0.431911	0.752139
96	C	0.875618	0.437966	0.988492
97	C	0.916734	0.45838	0.059737
98	C	0.926484	0.463219	0.249591
99	S	0.973035	0.486332	0.280334
100	C	0.981277	0.490426	0.038254
101	C	0.018347	0.508832	0.961746
102	C	0.051277	0.525175	0.061352
103	C	0.08289	0.540874	0.940263
104	C	0.124006	0.561283	0.011509
105	C	0.154381	0.576367	0.893384
106	C	0.187519	0.592813	0
107	C	0.18207	0.5901	0.193849
108	S	0.136205	0.567329	0.247861
109	C	0.07314	0.536042	0.750409
110	S	0.026589	0.512934	0.719667
111	C	0.948347	0.474077	0.938649
112	C	0.845242	0.422884	0.106616
113	H	0.797204	0.399037	0.693612
114	H	0.908879	0.454477	0.37387
115	H	0.052752	0.525901	0.215886
116	H	0.153048	0.575712	0.738957
117	H	0.202419	0.600197	0.306388
118	H	0.090745	0.544787	0.626131
119	H	0.946872	0.473346	0.784114
120	H	0.846575	0.423545	0.261043
