data_C114H54N6O6S12_2023-05-13_06:08:37
#******************************************
#
# CIF file created by Zeo++
# Zeo++ is an open source package to
# analyze microporous materials
#
#*******************************************

_cell_length_a		52.0023   
_cell_length_b		52.3007   
_cell_length_c		7   
_cell_angle_alpha		90   
_cell_angle_beta		90   
_cell_angle_gamma		119.751   

_symmetry_space_group_name_H-M		'P1'
_symmetry_Int_Tables_number		1
_symmetry_cell_setting		Monoclinic

loop_
_symmetry_equiv_pos_as_xyz
'+x,+y,+z'

loop_
_atom_site_label
_atom_site_type_symbol
_atom_site_fract_x
_atom_site_fract_y
_atom_site_fract_z
1	C	0.363139	0.672898	0.999995
2	O	0.38927	0.677481	0.999991
3	C	0.339517	0.642275	0.999998
4	C	0.344104	0.619703	0
5	N	0.373355	0.624982	0
6	C	0.309298	0.63684	3e-06
7	O	0.288069	0.610446	5e-06
8	C	0.302038	0.660391	6e-06
9	C	0.274228	0.654708	5e-06
10	N	0.251244	0.624677	0
11	C	0.326796	0.690769	4e-06
12	O	0.321027	0.711136	7e-06
13	C	0.357502	0.69757	0.999999
14	C	0.379328	0.725284	0.999998
15	N	0.374942	0.749885	0
16	H	0.326021	0.597729	1e-06
17	H	0.268362	0.671576	8e-06
18	H	0.401403	0.729241	0.999997
19	C	0.636861	0.327102	0.999995
20	O	0.61073	0.322519	0.999991
21	C	0.660483	0.357725	0.999998
22	C	0.655896	0.380297	0
23	N	0.626645	0.375018	0
24	C	0.690702	0.36316	3e-06
25	O	0.711931	0.389554	5e-06
26	C	0.697962	0.339609	6e-06
27	C	0.725772	0.345292	5e-06
28	N	0.748756	0.375323	0
29	C	0.673204	0.309231	4e-06
30	O	0.678973	0.288864	7e-06
31	C	0.642498	0.30243	0.999999
32	C	0.620672	0.274716	0.999998
33	N	0.625058	0.250115	0
34	H	0.673979	0.402271	1e-06
35	H	0.731638	0.328424	8e-06
36	H	0.598597	0.270759	0.999997
37	C	0.391208	0.607363	0
38	C	0.420403	0.617634	0.957081
39	C	0.429001	0.596357	0.004151
40	C	0.406074	0.57067	0.081169
41	C	0.406747	0.544587	0.144226
42	C	0.384335	0.519604	0.23056
43	C	0.392693	0.498035	0.272783
44	C	0.42134	0.506979	0.217349
45	C	0.437972	0.491232	0.23543
46	C	0.455941	0.497032	0.397284
47	C	0.472294	0.482751	0.426765
48	C	0.490136	0.488992	0.58925
49	C	0.506464	0.474899	0.619189
50	C	0.505063	0.454363	0.486766
51	C	0.487308	0.447322	0.320835
52	C	0.485337	0.426557	0.183051
53	C	0.501259	0.41014	0.203874
54	C	0.493035	0.384606	0.30478
55	C	0.514479	0.375259	0.289864
56	C	0.538535	0.393744	0.177452
57	C	0.564052	0.39048	0.135454
58	C	0.573064	0.373344	0.235056
59	C	0.59904	0.37462	0.156796
60	C	0.608792	0.392637	0
61	S	0.587571	0.407796	0.946369
62	S	0.534552	0.422423	0.09216
63	C	0.467287	0.420689	0.021524
64	C	0.450982	0.435012	0.991852
65	C	0.433171	0.428798	0.829235
66	C	0.416913	0.442956	0.798995
67	C	0.41831	0.463487	0.931438
68	C	0.43598	0.470446	0.09774
69	C	0.452537	0.455851	0.127143
70	C	0.470747	0.461916	0.291454
71	S	0.437868	0.541262	0.117141
72	S	0.374244	0.573133	0.094753
73	H	0.435012	0.639051	0.895584
74	H	0.45121	0.600041	0.98172
75	H	0.362632	0.516584	0.263102
76	H	0.378329	0.476995	0.339981
77	H	0.457105	0.513034	0.50157
78	H	0.491519	0.505002	0.693956
79	H	0.520356	0.479912	0.745238
80	H	0.518275	0.44388	0.514555
81	H	0.472612	0.373154	0.385471
82	H	0.512023	0.35561	0.358453
83	H	0.561723	0.360465	0.36009
84	H	0.609676	0.362939	0.213635
85	H	0.466051	0.404621	0.917512
86	H	0.431861	0.412856	0.724228
87	H	0.403181	0.438094	0.672265
88	H	0.40535	0.474207	0.902545
89	C	0.392527	0.785122	0
90	C	0.382077	0.803858	0.957081
91	C	0.403379	0.833556	0.004151
92	C	0.429265	0.836376	0.081169
93	C	0.455428	0.862994	0.144226
94	C	0.480604	0.865625	0.23056
95	C	0.502201	0.895375	0.272783
96	C	0.493084	0.914888	0.217349
97	C	0.508799	0.947051	0.23543
98	C	0.502891	0.959103	0.397284
99	C	0.517136	0.989532	0.426765
100	C	0.510785	0.001017	0.58925
101	C	0.524842	0.031234	0.619189
102	C	0.545451	0.050278	0.486766
103	C	0.552604	0.039674	0.320835
104	C	0.573446	0.05838	0.183051
105	C	0.589836	0.090507	0.203874
106	C	0.615493	0.107756	0.30478
107	C	0.624763	0.138323	0.289864
108	C	0.606098	0.143791	0.177452
109	C	0.609244	0.172346	0.135454
110	C	0.626391	0.198335	0.235056
111	C	0.624981	0.222829	0.156796
112	C	0.606857	0.214574	0
113	S	0.591755	0.178444	0.946369
114	S	0.577346	0.111305	0.09216
115	C	0.579423	0.046316	0.021524
116	C	0.565135	0.015893	0.991852
117	C	0.571459	0.004411	0.829235
118	C	0.557337	0.974199	0.798995
119	C	0.536732	0.955157	0.931438
120	C	0.529662	0.965758	0.09774
121	C	0.544221	0.996702	0.127143
122	C	0.538045	0.008728	0.291454
123	S	0.458608	0.897169	0.117141
124	S	0.426953	0.802356	0.094753
125	H	0.360518	0.797039	0.895584
126	H	0.399573	0.851918	0.98172
127	H	0.483743	0.847105	0.263102
128	H	0.523381	0.902062	0.339981
129	H	0.486831	0.944335	0.50157
130	H	0.494717	0.98646	0.693956
131	H	0.519743	0.040025	0.745238
132	H	0.555902	0.073812	0.514555
133	H	0.627084	0.098894	0.385471
134	H	0.644488	0.155439	0.358453
135	H	0.639369	0.199902	0.36009
136	H	0.636646	0.245	0.213635
137	H	0.595549	0.061078	0.917512
138	H	0.587459	0.018974	0.724228
139	H	0.562283	0.965417	0.672265
140	H	0.526043	0.931637	0.902545
141	C	0.215805	0.607059	0
142	C	0.19706	0.578051	0.957081
143	C	0.16716	0.569631	0.004151
144	C	0.164201	0.592498	0.081169
145	C	0.137365	0.591962	0.144226
146	C	0.134601	0.614315	0.23056
147	C	0.104646	0.606134	0.272783
148	C	0.085116	0.577677	0.217349
149	C	0.052769	0.56126	0.23543
150	C	0.040708	0.543409	0.397284
151	C	0.01011	0.527261	0.426765
152	C	0.998619	0.509534	0.58925
153	C	0.968235	0.493411	0.619189
154	C	0.949026	0.494903	0.486766
155	C	0.959629	0.512548	0.320835
156	C	0.940758	0.514607	0.183051
157	C	0.908445	0.498897	0.203874
158	C	0.891012	0.507182	0.30478
159	C	0.860299	0.485961	0.289864
160	C	0.854907	0.462009	0.177452
161	C	0.826244	0.436717	0.135454
162	C	0.800085	0.427865	0.235056
163	C	0.775519	0.402095	0.156796
164	C	0.783891	0.392332	0
165	S	0.820214	0.413304	0.946369
166	S	0.887642	0.465815	0.09216
167	C	0.95283	0.532538	0.021524
168	C	0.983423	0.548638	0.991852
169	C	0.994911	0.566335	0.829235
170	C	0.025291	0.582389	0.798995
171	C	0.044497	0.580899	0.931438
172	C	0.033898	0.563339	0.09774
173	C	0.002782	0.546991	0.127143
174	C	0.990748	0.5289	0.291454
175	S	0.103065	0.561112	0.117141
176	S	0.198343	0.624055	0.094753
177	H	0.20401	0.563454	0.895584
178	H	0.148757	0.547585	0.98172
179	H	0.153165	0.635855	0.263102
180	H	0.097831	0.620486	0.339981
181	H	0.055604	0.542174	0.50157
182	H	0.013304	0.508082	0.693956
183	H	0.959441	0.479607	0.745238
184	H	0.925363	0.481851	0.514555
185	H	0.899844	0.527495	0.385471
186	H	0.843029	0.488495	0.358453
187	H	0.798449	0.439177	0.36009
188	H	0.753219	0.391605	0.213635
189	H	0.93794	0.533844	0.917512
190	H	0.980221	0.567714	0.724228
191	H	0.034076	0.596032	0.672265
192	H	0.068147	0.5937	0.902545
