data_C96H48N6O6S12_2023-05-13_09:51:22
#******************************************
#
# CIF file created by Zeo++
# Zeo++ is an open source package to
# analyze microporous materials
#
#*******************************************

_cell_length_a		49.5979   
_cell_length_b		49.8964   
_cell_length_c		7   
_cell_angle_alpha		90   
_cell_angle_beta		90   
_cell_angle_gamma		119.739   

_symmetry_space_group_name_H-M		'P1'
_symmetry_Int_Tables_number		1
_symmetry_cell_setting		Monoclinic

loop_
_symmetry_equiv_pos_as_xyz
'+x,+y,+z'

loop_
_atom_site_label
_atom_site_type_symbol
_atom_site_fract_x
_atom_site_fract_y
_atom_site_fract_z
1	C	0.364582	0.673198	0.999995
2	O	0.391979	0.678001	0.999991
3	C	0.339823	0.641103	0.999998
4	C	0.344638	0.617446	0
5	N	0.375306	0.622978	0
6	C	0.30814	0.635406	3e-06
7	O	0.285889	0.607744	5e-06
8	C	0.300522	0.660089	6e-06
9	C	0.271366	0.654133	5e-06
10	N	0.247275	0.622659	0
11	C	0.326473	0.691928	4e-06
12	O	0.320419	0.713273	7e-06
13	C	0.358666	0.699055	0.999999
14	C	0.381542	0.728101	0.999998
15	N	0.376937	0.753884	0
16	H	0.325684	0.594416	1e-06
17	H	0.265211	0.671812	8e-06
18	H	0.404687	0.732248	0.999997
19	C	0.635418	0.326802	0.999995
20	O	0.608021	0.321999	0.999991
21	C	0.660177	0.358897	0.999998
22	C	0.655362	0.382554	0
23	N	0.624694	0.377022	0
24	C	0.69186	0.364594	3e-06
25	O	0.714111	0.392256	5e-06
26	C	0.699478	0.339911	6e-06
27	C	0.728634	0.345867	5e-06
28	N	0.752725	0.377341	0
29	C	0.673527	0.308072	4e-06
30	O	0.679581	0.286727	7e-06
31	C	0.641334	0.300945	0.999999
32	C	0.618458	0.271899	0.999998
33	N	0.623063	0.246116	0
34	H	0.674316	0.405584	1e-06
35	H	0.734789	0.328188	8e-06
36	H	0.595313	0.267752	0.999997
37	C	0.605971	0.395487	0
38	C	0.582053	0.372578	0.101718
39	C	0.555951	0.377341	0.107878
40	C	0.561001	0.403733	0.011452
41	C	0.53916	0.414848	0.990066
42	C	0.507228	0.397703	0.011397
43	C	0.492206	0.415443	0.982414
44	C	0.513053	0.445839	0.940741
45	C	0.506874	0.471177	0.901651
46	C	0.504027	0.477495	0.709714
47	C	0.497718	0.500816	0.662473
48	C	0.494161	0.518026	0.806868
49	C	0.496833	0.512573	0.002579
50	C	0.493266	0.530028	0.151644
51	C	0.487228	0.555455	0.112395
52	C	0.508146	0.585716	0.06795
53	C	0.493279	0.603607	0.039333
54	C	0.461371	0.586664	0.062441
55	C	0.439726	0.598079	0.044637
56	C	0.446722	0.628619	0.056726
57	C	0.420214	0.632369	0.031248
58	C	0.394029	0.604513	0
59	S	0.400695	0.57442	0.000893
60	S	0.450067	0.549059	0.120461
61	C	0.496081	0.523688	0.343588
62	C	0.502343	0.500334	0.390837
63	C	0.505904	0.483127	0.246442
64	C	0.503269	0.488605	0.050727
65	S	0.550336	0.452552	0.935792
66	S	0.597695	0.422209	0.913446
67	H	0.582893	0.353424	0.16843
68	H	0.534513	0.362014	0.181394
69	H	0.494854	0.373303	0.045022
70	H	0.467358	0.406353	0.991819
71	H	0.506718	0.464097	0.596253
72	H	0.495492	0.505625	0.513677
73	H	0.489069	0.53602	0.763956
74	H	0.532932	0.594591	0.055966
75	H	0.505698	0.627869	0.002133
76	H	0.46985	0.647656	0.083934
77	H	0.420681	0.654289	0.035974
78	H	0.493424	0.537107	0.457048
79	H	0.504549	0.495513	0.539648
80	H	0.510963	0.465109	0.289326
81	C	0.603987	0.208867	0
82	C	0.6271	0.207943	0.101718
83	C	0.622458	0.177327	0.107878
84	C	0.59595	0.15608	0.011452
85	C	0.584912	0.12337	0.990066
86	C	0.602283	0.108766	0.011397
87	C	0.584561	0.076226	0.982414
88	C	0.553953	0.066658	0.940741
89	C	0.528562	0.035327	0.901651
90	C	0.522237	0.02622	0.709714
91	C	0.49887	0.996766	0.662473
92	C	0.481621	0.976121	0.806868
93	C	0.487078	0.984194	0.002579
94	C	0.469583	0.963294	0.151644
95	C	0.444101	0.932014	0.112395
96	C	0.413628	0.922651	0.06795
97	C	0.395754	0.890114	0.039333
98	C	0.412923	0.875335	0.062441
99	C	0.401583	0.842521	0.044637
100	C	0.370902	0.819076	0.056726
101	C	0.367279	0.789065	0.031248
102	C	0.395367	0.790815	0
103	S	0.425527	0.827359	0.000893
104	S	0.450714	0.901535	0.120461
105	C	0.47593	0.972392	0.343588
106	C	0.499329	0.001831	0.390837
107	C	0.516576	0.022478	0.246442
108	C	0.511094	0.014417	0.050727
109	S	0.547021	0.096943	0.935792
110	S	0.577219	0.17408	0.913446
111	H	0.646314	0.227829	0.16843
112	H	0.637949	0.171319	0.181394
113	H	0.62683	0.12077	0.045022
114	H	0.593813	0.060634	0.991819
115	H	0.535666	0.042215	0.596253
116	H	0.494056	0.989776	0.513677
117	H	0.463592	0.953172	0.763956
118	H	0.404593	0.938397	0.055966
119	H	0.371345	0.878293	0.002133
120	H	0.351679	0.823069	0.083934
121	H	0.345283	0.767724	0.035974
122	H	0.462479	0.95641	0.457048
123	H	0.504155	0.008814	0.539648
124	H	0.534629	0.045418	0.289326
125	C	0.789559	0.395168	0
126	C	0.790364	0.419001	0.101718
127	C	0.821109	0.444854	0.107878
128	C	0.842567	0.439709	0.011452
129	C	0.875446	0.461304	0.990066
130	C	0.890007	0.493053	0.011397
131	C	0.922751	0.507852	0.982414
132	C	0.932512	0.487025	0.940741
133	C	0.964082	0.493018	0.901651
134	C	0.973254	0.495807	0.709714
135	C	0.00293	0.501939	0.662473
136	C	0.023736	0.505375	0.806868
137	C	0.015607	0.502755	0.002579
138	C	0.036669	0.506199	0.151644
139	C	0.068189	0.512052	0.112395
140	C	0.077744	0.491155	0.06795
141	C	0.110485	0.5058	0.039333
142	C	0.125224	0.537523	0.062441
143	C	0.158209	0.558922	0.044637
144	C	0.181894	0.551826	0.056726
145	C	0.212025	0.578087	0.031248
146	C	0.210123	0.604194	0
147	S	0.173296	0.597743	0.000893
148	S	0.098736	0.548928	0.120461
149	C	0.027507	0.503441	0.343588
150	C	0.997845	0.497356	0.390837
151	C	0.977038	0.493916	0.246442
152	C	0.985155	0.4965	0.050727
153	S	0.902161	0.450026	0.935792
154	S	0.824604	0.403233	0.913446
155	H	0.770311	0.418269	0.16843
156	H	0.827056	0.466189	0.181394
157	H	0.877834	0.505448	0.045022
158	H	0.938347	0.532535	0.991819
159	H	0.957134	0.493209	0.596253
160	H	0.009969	0.50412	0.513677
161	H	0.046857	0.510329	0.763956
162	H	0.061992	0.466534	0.055966
163	H	0.122474	0.49336	0.002133
164	H	0.177988	0.528796	0.083934
165	H	0.233554	0.577509	0.035974
166	H	0.043614	0.506005	0.457048
167	H	0.990813	0.495194	0.539648
168	H	0.953926	0.488995	0.289326
