data_C126H60N12O6S18_2023-05-12_07:28:10
#******************************************
#
# CIF file created by Zeo++
# Zeo++ is an open source package to
# analyze microporous materials
#
#*******************************************

_cell_length_a		54.6705   
_cell_length_b		54.9689   
_cell_length_c		7   
_cell_angle_alpha		90   
_cell_angle_beta		90   
_cell_angle_gamma		119.763   

_symmetry_space_group_name_H-M		'P1'
_symmetry_Int_Tables_number		1
_symmetry_cell_setting		Monoclinic

loop_
_symmetry_equiv_pos_as_xyz
'+x,+y,+z'

loop_
_atom_site_label
_atom_site_type_symbol
_atom_site_fract_x
_atom_site_fract_y
_atom_site_fract_z
1	C	0.361686	0.672597	0.999995
2	O	0.386542	0.676957	0.999991
3	C	0.33921	0.643456	0.999998
4	C	0.343568	0.621977	0
5	N	0.371392	0.627	0
6	C	0.310464	0.638284	3e-06
7	O	0.290265	0.613168	5e-06
8	C	0.303564	0.660695	6e-06
9	C	0.27711	0.655287	5e-06
10	N	0.25524	0.62671	0
11	C	0.327121	0.689602	4e-06
12	O	0.321638	0.708982	7e-06
13	C	0.35633	0.696073	0.999999
14	C	0.377096	0.722445	0.999998
15	N	0.37293	0.745855	0
16	H	0.326362	0.601068	1e-06
17	H	0.271534	0.671339	8e-06
18	H	0.398095	0.726211	0.999997
19	C	0.638314	0.327403	0.999995
20	O	0.613458	0.323043	0.999991
21	C	0.66079	0.356544	0.999998
22	C	0.656432	0.378023	0
23	N	0.628608	0.373	0
24	C	0.689536	0.361716	3e-06
25	O	0.709735	0.386832	5e-06
26	C	0.696436	0.339305	6e-06
27	C	0.72289	0.344713	5e-06
28	N	0.74476	0.37329	0
29	C	0.672879	0.310398	4e-06
30	O	0.678362	0.291018	7e-06
31	C	0.64367	0.303927	0.999999
32	C	0.622904	0.277555	0.999998
33	N	0.62707	0.254145	0
34	H	0.673638	0.398932	1e-06
35	H	0.728466	0.328661	8e-06
36	H	0.601905	0.273789	0.999997
37	C	0.61163	0.389765	0
38	C	0.606975	0.381132	0.186421
39	C	0.605084	0.401275	0.305109
40	C	0.608383	0.424511	0.204987
41	C	0.607768	0.448867	0.278481
42	C	0.613114	0.472923	0.18142
43	C	0.610734	0.492788	0.299822
44	C	0.603407	0.483619	0.485784
45	C	0.599665	0.498854	0.641103
46	C	0.611823	0.527662	0.656397
47	C	0.603812	0.536213	0.826411
48	C	0.585482	0.513679	0.936451
49	C	0.57248	0.513684	0.119705
50	C	0.548368	0.517031	0.132272
51	C	0.534715	0.519817	0.970554
52	C	0.511246	0.523114	0.989353
53	C	0.500507	0.52375	0.17058
54	C	0.476626	0.527206	0.196468
55	C	0.461146	0.53009	0.035226
56	C	0.439759	0.509386	0.928858
57	C	0.430122	0.520637	0.782287
58	C	0.444232	0.549663	0.780022
59	C	0.440054	0.568022	0.651739
60	C	0.454438	0.597005	0.647611
61	C	0.44462	0.608191	0.501722
62	C	0.422859	0.587669	0.395237
63	C	0.407781	0.591269	0.237409
64	C	0.389582	0.571226	0.108811
65	C	0.378331	0.582213	0.971074
66	C	0.38837	0.610235	0
67	S	0.410796	0.623361	0.186746
68	S	0.414881	0.555055	0.475503
69	S	0.46911	0.562713	0.958958
70	C	0.46697	0.527618	0.380057
71	C	0.481254	0.524698	0.531527
72	N	0.503929	0.521411	0.511466
73	C	0.513936	0.520879	0.335013
74	C	0.537741	0.517472	0.315932
75	N	0.550455	0.514644	0.474138
76	C	0.573183	0.511379	0.457757
77	C	0.584924	0.510821	0.285604
78	S	0.57835	0.482604	0.834358
79	S	0.599731	0.45099	0.512937
80	S	0.613698	0.421166	0.965772
81	H	0.605003	0.361624	0.23711
82	H	0.601501	0.39858	0.457789
83	H	0.61865	0.476515	0.031436
84	H	0.614144	0.512832	0.248671
85	H	0.626155	0.542209	0.551225
86	H	0.611154	0.557827	0.865586
87	H	0.542116	0.519361	0.827006
88	H	0.501477	0.525227	0.859657
89	H	0.431396	0.487191	0.954144
90	H	0.413447	0.507659	0.683395
91	H	0.47139	0.610033	0.744697
92	H	0.453452	0.63046	0.477631
93	H	0.384429	0.549476	0.111531
94	H	0.363792	0.570043	0.858568
95	H	0.44878	0.530178	0.404428
96	H	0.474791	0.524894	0.677987
97	H	0.581909	0.509223	0.591893
98	H	0.603346	0.508258	0.28087
99	C	0.609748	0.220325	0
100	C	0.61843	0.224298	0.186421
101	C	0.598234	0.202375	0.305109
102	C	0.574911	0.182523	0.204987
103	C	0.550484	0.157673	0.278481
104	C	0.526328	0.139036	0.18142
105	C	0.506413	0.116904	0.299822
106	C	0.515645	0.118759	0.485784
107	C	0.500382	0.099885	0.641103
108	C	0.471427	0.083277	0.656397
109	C	0.462888	0.066819	0.826411
110	C	0.485579	0.071058	0.936451
111	C	0.485635	0.058151	0.119705
112	C	0.482393	0.030897	0.132272
113	C	0.479663	0.014577	0.970554
114	C	0.476468	0.98801	0.989353
115	C	0.475882	0.976722	0.17058
116	C	0.472529	0.949587	0.196468
117	C	0.46971	0.931358	0.035226
118	C	0.49058	0.930743	0.928858
119	C	0.47934	0.909983	0.782287
120	C	0.450157	0.895095	0.780022
121	C	0.431762	0.872679	0.651739
122	C	0.402621	0.858105	0.647611
123	C	0.391448	0.837232	0.501722
124	C	0.412137	0.836065	0.395237
125	C	0.408597	0.817521	0.237409
126	C	0.428789	0.819412	0.108811
127	C	0.417822	0.797314	0.971074
128	C	0.389666	0.779385	0
129	S	0.376392	0.788574	0.186746
130	S	0.444889	0.860607	0.475503
131	S	0.436949	0.906792	0.958958
132	C	0.472162	0.939597	0.380057
133	C	0.475022	0.956675	0.531527
134	N	0.478212	0.982445	0.511466
135	C	0.478697	0.992903	0.335013
136	C	0.482002	0.019914	0.315932
137	N	0.484777	0.035343	0.474138
138	C	0.487944	0.061143	0.457757
139	C	0.488448	0.073348	0.285604
140	S	0.516783	0.094908	0.834358
141	S	0.548392	0.147585	0.512937
142	S	0.578241	0.191125	0.965772
143	H	0.638007	0.241756	0.23711
144	H	0.600954	0.201502	0.457789
145	H	0.522699	0.140954	0.031436
146	H	0.486292	0.10034	0.248671
147	H	0.456767	0.08302	0.551225
148	H	0.441173	0.052592	0.865586
149	H	0.480085	0.022374	0.827006
150	H	0.474395	0.976214	0.859657
151	H	0.512883	0.944535	0.954144
152	H	0.492437	0.906354	0.683395
153	H	0.389473	0.86196	0.744697
154	H	0.369069	0.823832	0.477631
155	H	0.45063	0.835944	0.111531
156	H	0.430099	0.795	0.858568
157	H	0.469681	0.919001	0.404428
158	H	0.474857	0.950067	0.677987
159	H	0.490066	0.071947	0.591893
160	H	0.490931	0.094178	0.28087
161	C	0.778184	0.389475	0
162	C	0.774157	0.394135	0.186421
163	C	0.796245	0.395916	0.305109
164	C	0.816268	0.392531	0.204987
165	C	0.841311	0.393026	0.278481
166	C	0.860121	0.387607	0.18142
167	C	0.882415	0.389873	0.299822
168	C	0.880511	0.397187	0.485784
169	C	0.899516	0.400827	0.641103
170	C	0.916312	0.388626	0.656397
171	C	0.932862	0.396534	0.826411
172	C	0.928502	0.414829	0.936451
173	C	0.941448	0.42773	0.119705
174	C	0.968801	0.451638	0.132272
175	C	0.985185	0.465171	0.970554
176	C	0.011848	0.488442	0.989353
177	C	0.023173	0.499094	0.17058
178	C	0.050408	0.522773	0.196468
179	C	0.068706	0.538118	0.035226
180	C	0.069224	0.559437	0.928858
181	C	0.090101	0.568945	0.782287
182	C	0.105173	0.554807	0.780022
183	C	0.127746	0.558865	0.651739
184	C	0.142504	0.544455	0.647611
185	C	0.163494	0.554143	0.501722
186	C	0.164566	0.575832	0.395237
187	C	0.183184	0.590776	0.237409
188	C	0.181191	0.608928	0.108811
189	C	0.20341	0.620039	0.971074
190	C	0.221527	0.609945	0
191	S	0.212374	0.587631	0.186746
192	S	0.139793	0.583903	0.475503
193	S	0.093504	0.530061	0.958958
194	C	0.06043	0.532351	0.380057
195	C	0.043286	0.518192	0.531527
196	N	0.017421	0.495709	0.511466
197	C	0.00693	0.485784	0.335013
198	C	0.97982	0.46218	0.315932
199	N	0.96433	0.449579	0.474138
200	C	0.938436	0.427044	0.457757
201	C	0.926191	0.415397	0.285604
202	S	0.90443	0.422054	0.834358
203	S	0.85144	0.400991	0.512937
204	S	0.807624	0.387275	0.965772
205	H	0.756553	0.396186	0.23711
206	H	0.797107	0.399484	0.457789
207	H	0.858214	0.382097	0.031436
208	H	0.899127	0.386394	0.248671
209	H	0.916641	0.374337	0.551225
210	H	0.947236	0.389147	0.865586
211	H	0.977361	0.45783	0.827006
212	H	0.02369	0.498125	0.859657
213	H	0.055283	0.56784	0.954144
214	H	0.093679	0.585552	0.683395
215	H	0.1387	0.527573	0.744697
216	H	0.177042	0.545274	0.477631
217	H	0.164504	0.614145	0.111531
218	H	0.205672	0.634523	0.858568
219	H	0.081101	0.550387	0.404428
220	H	0.049915	0.524604	0.677987
221	H	0.927588	0.418396	0.591893
222	H	0.905285	0.39713	0.28087
