data_C78H48N6O6S6_2023-05-11_05:32:43
#******************************************
#
# CIF file created by Zeo++
# Zeo++ is an open source package to
# analyze microporous materials
#
#*******************************************

_cell_length_a		25.4246   
_cell_length_b		25.7234   
_cell_length_c		7   
_cell_angle_alpha		90   
_cell_angle_beta		90   
_cell_angle_gamma		119.493   

_symmetry_space_group_name_H-M		'P1'
_symmetry_Int_Tables_number		1
_symmetry_cell_setting		Monoclinic

loop_
_symmetry_equiv_pos_as_xyz
'+x,+y,+z'

loop_
_atom_site_label
_atom_site_type_symbol
_atom_site_fract_x
_atom_site_fract_y
_atom_site_fract_z
1	C	0.394229	0.679305	0.999995
2	O	0.447627	0.688598	0.999991
3	C	0.34624	0.617201	0.999998
4	C	0.355862	0.571425	0
5	N	0.415634	0.58213	0
6	C	0.284488	0.606178	3e-06
7	O	0.241348	0.55265	5e-06
8	C	0.269388	0.653939	6e-06
9	C	0.212569	0.642414	5e-06
10	N	0.165876	0.581512	0
11	C	0.319704	0.715547	4e-06
12	O	0.307687	0.75685	7e-06
13	C	0.382437	0.729338	0.999999
14	C	0.426783	0.785542	0.999998
15	N	0.41755	0.835433	0
16	H	0.31911	0.526862	1e-06
17	H	0.200391	0.676624	8e-06
18	H	0.471892	0.793567	0.999997
19	C	0.605771	0.320695	0.999995
20	O	0.552373	0.311402	0.999991
21	C	0.65376	0.382799	0.999998
22	C	0.644138	0.428575	0
23	N	0.584366	0.41787	0
24	C	0.715512	0.393822	3e-06
25	O	0.758652	0.44735	5e-06
26	C	0.730612	0.346061	6e-06
27	C	0.787431	0.357586	5e-06
28	N	0.834124	0.418488	0
29	C	0.680296	0.284453	4e-06
30	O	0.692313	0.24315	7e-06
31	C	0.617563	0.270662	0.999999
32	C	0.573217	0.214458	0.999998
33	N	0.58245	0.164567	0
34	H	0.68089	0.473138	1e-06
35	H	0.799609	0.323376	8e-06
36	H	0.528108	0.206433	0.999997
37	C	0.547663	0.4536	0
38	C	0.587446	0.498104	0.117427
39	C	0.561654	0.493921	0.301796
40	C	0.503074	0.44654	0.320568
41	C	0.463461	0.429406	0.482437
42	C	0.417711	0.373168	0.507659
43	C	0.383751	0.368327	0.68703
44	C	0.417431	0.430451	0.762852
45	C	0.463149	0.46555	0.645004
46	C	0.503553	0.528028	0.685184
47	C	0.488609	0.571174	0.701915
48	C	0.429149	0.564196	0.675493
49	C	0.398364	0.57147	0.819671
50	C	0.337181	0.558451	0.753027
51	C	0.338054	0.543	0.547474
52	C	0.391463	0.546952	0.503448
53	C	0.404238	0.536788	0.313418
54	C	0.368574	0.491008	0.188063
55	C	0.396419	0.496468	0.006627
56	C	0.452337	0.5464	0
57	S	0.471761	0.586061	0.205386
58	S	0.480913	0.407831	0.105672
59	H	0.63244	0.532021	0.075809
60	H	0.585761	0.524866	0.41614
61	H	0.405643	0.335363	0.415085
62	H	0.336645	0.355257	0.656576
63	H	0.385582	0.336473	0.786532
64	H	0.40603	0.444517	0.894438
65	H	0.550547	0.540001	0.706247
66	H	0.523854	0.616214	0.737092
67	H	0.414206	0.58352	0.96472
68	H	0.301424	0.520842	0.831275
69	H	0.331389	0.597671	0.767734
70	H	0.301085	0.531963	0.450048
71	H	0.324311	0.454741	0.226015
72	H	0.376233	0.465264	0.889716
73	C	0.545591	0.092491	0
74	C	0.500387	0.087563	0.117427
75	C	0.504861	0.06634	0.301796
76	C	0.553152	0.055631	0.320568
77	C	0.570802	0.033635	0.482437
78	C	0.62788	0.044312	0.507659
79	C	0.633099	0.015707	0.68703
80	C	0.57022	0.987337	0.762852
81	C	0.534422	0.997553	0.645004
82	C	0.471117	0.975444	0.685184
83	C	0.427837	0.91804	0.701915
84	C	0.435466	0.866474	0.675493
85	C	0.428457	0.829001	0.819671
86	C	0.442184	0.78172	0.753027
87	C	0.457729	0.797872	0.547474
88	C	0.453207	0.846483	0.503448
89	C	0.463309	0.869106	0.313418
90	C	0.509756	0.879349	0.188063
91	C	0.503977	0.901328	0.006627
92	C	0.453145	0.906893	0
93	S	0.413022	0.886736	0.205386
94	S	0.592343	0.072153	0.105672
95	H	0.465787	0.098238	0.075809
96	H	0.473464	0.059415	0.41614
97	H	0.666059	0.069865	0.415085
98	H	0.646735	0.982321	0.656576
99	H	0.665146	0.049037	0.786532
100	H	0.556176	0.962202	0.894438
101	H	0.458587	0.009806	0.706247
102	H	0.382139	0.908119	0.737092
103	H	0.416165	0.832652	0.96472
104	H	0.480407	0.783783	0.831275
105	H	0.402763	0.737204	0.767734
106	H	0.469215	0.772442	0.450048
107	H	0.546715	0.871719	0.226015
108	H	0.535594	0.912363	0.889716
109	C	0.905807	0.452983	0
110	C	0.911228	0.413408	0.117427
111	C	0.932546	0.438814	0.301796
112	C	0.942834	0.496903	0.320568
113	C	0.964797	0.536033	0.482437
114	C	0.953469	0.581595	0.507659
115	C	0.982211	0.61504	0.68703
116	C	0.01141	0.581288	0.762852
117	C	0.00149	0.535972	0.645004
118	C	0.02439	0.495603	0.685184
119	C	0.082615	0.509861	0.701915
120	C	0.134446	0.568404	0.675493
121	C	0.17224	0.598604	0.819671
122	C	0.219695	0.658904	0.753027
123	C	0.203278	0.658202	0.547474
124	C	0.15439	0.605639	0.503448
125	C	0.131513	0.59318	0.313418
126	C	0.12073	0.628717	0.188063
127	C	0.098664	0.601279	0.006627
128	C	0.093579	0.545782	0
129	S	0.114278	0.526277	0.205386
130	S	0.925804	0.51909	0.105672
131	H	0.900833	0.368816	0.075809
132	H	0.939836	0.414793	0.41614
133	H	0.927358	0.593847	0.415085
134	H	0.01568	0.661497	0.656576
135	H	0.948333	0.613564	0.786532
136	H	0.036854	0.592356	0.894438
137	H	0.989926	0.449268	0.706247
138	H	0.093067	0.474742	0.737092
139	H	0.16869	0.582903	0.96472
140	H	0.21723	0.694449	0.831275
141	H	0.264909	0.6642	0.767734
142	H	0.228761	0.69467	0.450048
143	H	0.128035	0.672614	0.226015
144	H	0.087234	0.621448	0.889716
