data_C57H36N12O6_2023-05-10_23:05:45
#******************************************
#
# CIF file created by Zeo++
# Zeo++ is an open source package to
# analyze microporous materials
#
#*******************************************

_cell_length_a		34.5327   
_cell_length_b		34.8313   
_cell_length_c		7   
_cell_angle_alpha		90   
_cell_angle_beta		90   
_cell_angle_gamma		119.626   

_symmetry_space_group_name_H-M		'P1'
_symmetry_Int_Tables_number		1
_symmetry_cell_setting		Monoclinic

loop_
_symmetry_equiv_pos_as_xyz
'+x,+y,+z'

loop_
_atom_site_label
_atom_site_type_symbol
_atom_site_fract_x
_atom_site_fract_y
_atom_site_fract_z
1	C	0.378193	0.676012	0.999995
2	O	0.417526	0.682885	0.999991
3	C	0.342738	0.630088	0.999998
4	C	0.349731	0.596237	0
5	N	0.39376	0.604153	0
6	C	0.297251	0.621936	3e-06
7	O	0.265383	0.582353	5e-06
8	C	0.286229	0.657255	6e-06
9	C	0.244373	0.648732	5e-06
10	N	0.209875	0.603696	0
11	C	0.323396	0.702813	4e-06
12	O	0.314631	0.733356	7e-06
13	C	0.369611	0.713011	0.999999
14	C	0.402372	0.754573	0.999998
15	N	0.395673	0.791467	0
16	H	0.322584	0.563283	1e-06
17	H	0.235475	0.67403	8e-06
18	H	0.435599	0.760508	0.999997
19	C	0.621807	0.323988	0.999995
20	O	0.582474	0.317115	0.999991
21	C	0.657262	0.369912	0.999998
22	C	0.650269	0.403763	0
23	N	0.60624	0.395847	0
24	C	0.702749	0.378064	3e-06
25	O	0.734617	0.417647	5e-06
26	C	0.713771	0.342745	6e-06
27	C	0.755627	0.351268	5e-06
28	N	0.790125	0.396304	0
29	C	0.676604	0.297187	4e-06
30	O	0.685369	0.266644	7e-06
31	C	0.630389	0.286989	0.999999
32	C	0.597628	0.245427	0.999998
33	N	0.604327	0.208533	0
34	H	0.677416	0.436717	1e-06
35	H	0.764525	0.32597	8e-06
36	H	0.564401	0.239492	0.999997
37	C	0.420711	0.577731	0
38	C	0.399475	0.547152	0.858617
39	C	0.418806	0.519476	0.856349
40	C	0.451059	0.53372	0.997815
41	C	0.480563	0.518821	0.057177
42	C	0.501061	0.527912	0.227805
43	C	0.529011	0.506033	0.243899
44	C	0.521251	0.482549	0.054444
45	C	0.538345	0.455948	0.981662
46	C	0.53361	0.433679	0.811648
47	C	0.559524	0.412404	0.82345
48	C	0.579289	0.422269	0
49	N	0.566528	0.448436	0.094929
50	C	0.493151	0.490747	0.952069
51	N	0.451816	0.569745	0.082933
52	H	0.373214	0.544818	0.766647
53	H	0.409917	0.491779	0.761591
54	H	0.498229	0.547114	0.342255
55	H	0.564168	0.530643	0.263277
56	H	0.517726	0.482622	0.363056
57	H	0.513591	0.432736	0.690831
58	H	0.563092	0.392288	0.71473
59	H	0.57656	0.460197	0.228319
60	H	0.480895	0.478822	0.810035
61	H	0.47249	0.588167	0.188888
62	C	0.422022	0.84431	0
63	C	0.45291	0.853685	0.858617
64	C	0.480574	0.900245	0.856349
65	C	0.466019	0.917966	0.997815
66	C	0.480769	0.961894	0.057177
67	C	0.471479	0.973118	0.227805
68	C	0.493255	0.02244	0.243899
69	C	0.516912	0.038083	0.054444
70	C	0.543514	0.081367	0.981662
71	C	0.565927	0.098792	0.811648
72	C	0.587111	0.145503	0.82345
73	C	0.577049	0.155234	0
74	N	0.550851	0.11666	0.094929
75	C	0.508885	0.002191	0.952069
76	N	0.429813	0.88296	0.082933
77	H	0.455452	0.830062	0.766647
78	H	0.508474	0.918955	0.761591
79	H	0.452204	0.951263	0.342255
80	H	0.46826	0.032739	0.263277
81	H	0.516865	0.034527	0.363056
82	H	0.567025	0.079955	0.690831
83	H	0.607299	0.168992	0.71473
84	H	0.538957	0.114896	0.228319
85	H	0.520961	0.00192	0.810035
86	H	0.411145	0.885096	0.188888
87	C	0.156575	0.577274	0
88	C	0.146923	0.598479	0.858617
89	C	0.099927	0.579594	0.856349
90	C	0.08223	0.547629	0.997815
91	C	0.037976	0.518601	0.057177
92	C	0.026768	0.498285	0.227805
93	C	0.977041	0.470843	0.243899
94	C	0.961145	0.478684	0.054444
95	C	0.917449	0.462	0.981662
96	C	0.89977	0.466844	0.811648
97	C	0.852673	0.441409	0.82345
98	C	0.84297	0.421813	0
99	N	0.881929	0.43422	0.094929
100	C	0.997271	0.506378	0.952069
101	N	0.117679	0.546611	0.082933
102	H	0.170642	0.624436	0.766647
103	H	0.080917	0.588581	0.761591
104	H	0.048874	0.500938	0.342255
105	H	0.96688	0.435933	0.263277
106	H	0.964717	0.482166	0.363056
107	H	0.918691	0.486625	0.690831
108	H	0.828917	0.438036	0.71473
109	H	0.883791	0.424223	0.228319
110	H	0.997453	0.518573	0.810035
111	H	0.115672	0.526052	0.188888
