data_C120H60N6O6S18_2023-05-12_07:50:41
#******************************************
#
# CIF file created by Zeo++
# Zeo++ is an open source package to
# analyze microporous materials
#
#*******************************************

_cell_length_a		59.4053   
_cell_length_b		59.7037   
_cell_length_c		7   
_cell_angle_alpha		90   
_cell_angle_beta		90   
_cell_angle_gamma		119.782   

_symmetry_space_group_name_H-M		'P1'
_symmetry_Int_Tables_number		1
_symmetry_cell_setting		Monoclinic

loop_
_symmetry_equiv_pos_as_xyz
'+x,+y,+z'

loop_
_atom_site_label
_atom_site_type_symbol
_atom_site_fract_x
_atom_site_fract_y
_atom_site_fract_z
1	C	0.359428	0.672127	0.999995
2	O	0.382305	0.676143	0.999991
3	C	0.338733	0.645293	0.999998
4	C	0.342736	0.625514	0
5	N	0.368345	0.630139	0
6	C	0.312277	0.64053	3e-06
7	O	0.293679	0.617401	5e-06
8	C	0.305934	0.661167	6e-06
9	C	0.281587	0.656187	5e-06
10	N	0.261451	0.629872	0
11	C	0.327624	0.687787	4e-06
12	O	0.322585	0.705634	7e-06
13	C	0.354507	0.693746	0.999999
14	C	0.373628	0.718031	0.999998
15	N	0.369802	0.739589	0
16	H	0.326895	0.606258	1e-06
17	H	0.276462	0.670969	8e-06
18	H	0.392954	0.721499	0.999997
19	C	0.640572	0.327873	0.999995
20	O	0.617695	0.323857	0.999991
21	C	0.661267	0.354707	0.999998
22	C	0.657264	0.374486	0
23	N	0.631655	0.369861	0
24	C	0.687723	0.35947	3e-06
25	O	0.706321	0.382599	5e-06
26	C	0.694066	0.338833	6e-06
27	C	0.718413	0.343813	5e-06
28	N	0.738549	0.370128	0
29	C	0.672376	0.312213	4e-06
30	O	0.677415	0.294366	7e-06
31	C	0.645493	0.306254	0.999999
32	C	0.626372	0.281969	0.999998
33	N	0.630198	0.260411	0
34	H	0.673105	0.393742	1e-06
35	H	0.723538	0.329031	8e-06
36	H	0.607046	0.278501	0.999997
37	C	0.383963	0.6147	0
38	C	0.40226	0.607049	0.992341
39	C	0.404328	0.596592	0.170992
40	C	0.423457	0.58606	0.213662
41	C	0.425427	0.576102	0.386501
42	C	0.444473	0.568124	0.382193
43	C	0.456375	0.572321	0.206566
44	C	0.478265	0.565624	0.157478
45	C	0.48988	0.569891	0.980515
46	S	0.512847	0.560546	0.971335
47	C	0.50754	0.550731	0.204653
48	C	0.522459	0.539801	0.291548
49	C	0.54802	0.55708	0.347878
50	C	0.56298	0.548112	0.435307
51	C	0.552454	0.521773	0.468373
52	C	0.526737	0.503564	0.41525
53	C	0.515656	0.476582	0.449729
54	C	0.529946	0.465602	0.545631
55	C	0.543184	0.454409	0.465071
56	C	0.554403	0.445506	0.605101
57	C	0.570656	0.431783	0.560291
58	C	0.581718	0.423536	0.696079
59	C	0.595123	0.411633	0.612594
60	C	0.593634	0.411034	0.416002
61	C	0.605838	0.39875	0.280922
62	C	0.619871	0.387625	0.347451
63	S	0.630208	0.375683	0.165609
64	C	0.616037	0.3853	0
65	C	0.603763	0.397504	0.077307
66	S	0.576559	0.425168	0.334415
67	C	0.549175	0.450227	0.787918
68	S	0.530783	0.46501	0.790008
69	C	0.490253	0.459258	0.390468
70	C	0.475512	0.468163	0.299022
71	C	0.486003	0.494504	0.266615
72	C	0.511526	0.512782	0.323546
73	C	0.488584	0.554577	0.287124
74	S	0.444473	0.585681	0.048797
75	C	0.387324	0.596745	0.304858
76	S	0.369194	0.609486	0.215278
77	H	0.413605	0.608917	0.86615
78	H	0.413972	0.574445	0.511571
79	H	0.448955	0.559809	0.503674
80	H	0.486179	0.577999	0.854305
81	H	0.556312	0.577702	0.323758
82	H	0.582779	0.561557	0.478446
83	H	0.564816	0.5155	0.537292
84	H	0.54464	0.452776	0.311942
85	H	0.580465	0.42571	0.848466
86	H	0.605031	0.403825	0.695305
87	H	0.624833	0.385805	0.493099
88	H	0.593656	0.40493	0.992905
89	H	0.554952	0.445681	0.922148
90	H	0.48188	0.438663	0.416143
91	H	0.455875	0.454681	0.252691
92	H	0.473831	0.500688	0.193683
93	H	0.482584	0.549558	0.434167
94	H	0.384415	0.590145	0.451268
95	C	0.385216	0.770466	0
96	C	0.392809	0.79625	0.992341
97	C	0.403286	0.808714	0.170992
98	C	0.413763	0.838191	0.213662
99	C	0.423741	0.850061	0.386501
100	C	0.431658	0.876913	0.382193
101	C	0.427397	0.884551	0.206566
102	C	0.434016	0.912952	0.157478
103	C	0.429687	0.920235	0.980515
104	S	0.438957	0.952342	0.971335
105	C	0.448823	0.956844	0.204653
106	C	0.459718	0.982538	0.291548
107	C	0.442279	0.990713	0.347878
108	C	0.451206	0.014494	0.435307
109	C	0.477665	0.030267	0.468373
110	C	0.496039	0.022864	0.41525
111	C	0.523146	0.038725	0.449729
112	C	0.534094	0.063845	0.545631
113	C	0.545261	0.088132	0.465071
114	C	0.554139	0.108134	0.605101
115	C	0.56783	0.137933	0.560291
116	C	0.576051	0.157126	0.696079
117	C	0.58793	0.182287	0.612594
118	C	0.588536	0.181404	0.416002
119	C	0.600802	0.205751	0.280922
120	C	0.611896	0.230759	0.347451
121	S	0.623827	0.252912	0.165609
122	C	0.614245	0.229268	0
123	C	0.602061	0.204932	0.077307
124	S	0.574438	0.15038	0.334415
125	C	0.549428	0.098244	0.787918
126	S	0.534684	0.065265	0.790008
127	C	0.54063	0.030753	0.390468
128	C	0.531765	0.007252	0.299022
129	C	0.505303	0.991441	0.266615
130	C	0.486862	0.998585	0.323546
131	C	0.44505	0.934196	0.287124
132	S	0.414052	0.859434	0.048797
133	C	0.403207	0.791679	0.304858
134	S	0.39051	0.760994	0.215278
135	H	0.390885	0.805652	0.86615
136	H	0.425453	0.840338	0.511571
137	H	0.439977	0.889642	0.503674
138	H	0.421571	0.908488	0.854305
139	H	0.421561	0.978413	0.323758
140	H	0.437636	0.020765	0.478446
141	H	0.483902	0.048785	0.537292
142	H	0.546891	0.091203	0.311942
143	H	0.573877	0.153718	0.848466
144	H	0.595715	0.199896	0.695305
145	H	0.613699	0.237497	0.493099
146	H	0.594658	0.187503	0.992905
147	H	0.553962	0.108505	0.922148
148	H	0.56132	0.042945	0.416143
149	H	0.545371	0.001178	0.252691
150	H	0.499156	0.973201	0.193683
151	H	0.450109	0.933235	0.434167
152	H	0.409838	0.795362	0.451268
153	C	0.230419	0.614434	0
154	C	0.204528	0.596301	0.992341
155	C	0.191983	0.594294	0.170992
156	C	0.162377	0.575349	0.213662
157	C	0.15043	0.573437	0.386501
158	C	0.123467	0.554563	0.382193
159	C	0.115826	0.542728	0.206566
160	C	0.087316	0.521024	0.157478
161	C	0.080031	0.509474	0.980515
162	S	0.047793	0.486712	0.971335
163	C	0.043234	0.492024	0.204653
164	C	0.017421	0.477261	0.291548
165	C	0.009299	0.451807	0.347878
166	C	0.985411	0.436994	0.435307
167	C	0.969478	0.44756	0.468373
168	C	0.976821	0.473172	0.41525
169	C	0.960796	0.484293	0.449729
170	C	0.935557	0.470153	0.545631
171	C	0.911152	0.457059	0.465071
172	C	0.891055	0.44596	0.605101
173	C	0.861111	0.429884	0.560291
174	C	0.841828	0.418938	0.696079
175	C	0.816544	0.405681	0.612594
176	C	0.817427	0.407162	0.416002
177	C	0.792957	0.395099	0.280922
178	C	0.76783	0.381216	0.347451
179	S	0.745562	0.371005	0.165609
180	C	0.769315	0.385033	0
181	C	0.793774	0.397165	0.077307
182	S	0.8486	0.424052	0.334415
183	C	0.900994	0.45113	0.787918
184	S	0.93413	0.469324	0.790008
185	C	0.968714	0.509589	0.390468
186	C	0.992321	0.524185	0.299022
187	C	0.008292	0.513654	0.266615
188	C	0.001209	0.488233	0.323546
189	C	0.065964	0.510827	0.287124
190	S	0.141072	0.554485	0.048797
191	C	0.209066	0.611176	0.304858
192	S	0.239894	0.62912	0.215278
193	H	0.195108	0.58503	0.86615
194	H	0.160172	0.584817	0.511571
195	H	0.110665	0.550149	0.503674
196	H	0.091847	0.513112	0.854305
197	H	0.021724	0.443484	0.323758
198	H	0.979182	0.417278	0.478446
199	H	0.950879	0.435315	0.537292
200	H	0.908066	0.45562	0.311942
201	H	0.845255	0.420171	0.848466
202	H	0.798851	0.395878	0.695305
203	H	0.761065	0.376298	0.493099
204	H	0.811284	0.407167	0.992905
205	H	0.890683	0.445414	0.922148
206	H	0.956397	0.517992	0.416143
207	H	0.998351	0.543741	0.252691
208	H	0.026611	0.525711	0.193683
209	H	0.066905	0.516807	0.434167
210	H	0.205344	0.614093	0.451268
