data_C138H66N6O6S18_2023-05-15_11:14:42
#******************************************
#
# CIF file created by Zeo++
# Zeo++ is an open source package to
# analyze microporous materials
#
#*******************************************

_cell_length_a		62.5462   
_cell_length_b		62.8446   
_cell_length_c		7   
_cell_angle_alpha		90   
_cell_angle_beta		90   
_cell_angle_gamma		119.793   

_symmetry_space_group_name_H-M		'P1'
_symmetry_Int_Tables_number		1
_symmetry_cell_setting		Monoclinic

loop_
_symmetry_equiv_pos_as_xyz
'+x,+y,+z'

loop_
_atom_site_label
_atom_site_type_symbol
_atom_site_fract_x
_atom_site_fract_y
_atom_site_fract_z
1	C	0.358119	0.671855	0.999995
2	O	0.379848	0.67567	0.999991
3	C	0.338458	0.646359	0.999998
4	C	0.342255	0.627566	0
5	N	0.366579	0.631961	0
6	C	0.313329	0.641834	3e-06
7	O	0.29566	0.619859	5e-06
8	C	0.307309	0.661442	6e-06
9	C	0.284184	0.65671	5e-06
10	N	0.265053	0.631707	0
11	C	0.327915	0.686734	4e-06
12	O	0.323133	0.70369	7e-06
13	C	0.35345	0.692396	0.999999
14	C	0.371615	0.715469	0.999998
15	N	0.367986	0.735952	0
16	H	0.327206	0.609271	1e-06
17	H	0.279319	0.670754	8e-06
18	H	0.389972	0.718764	0.999997
19	C	0.641881	0.328145	0.999995
20	O	0.620152	0.32433	0.999991
21	C	0.661542	0.353641	0.999998
22	C	0.657745	0.372434	0
23	N	0.633421	0.368039	0
24	C	0.686671	0.358166	3e-06
25	O	0.70434	0.380141	5e-06
26	C	0.692691	0.338558	6e-06
27	C	0.715816	0.34329	5e-06
28	N	0.734947	0.368293	0
29	C	0.672085	0.313266	4e-06
30	O	0.676867	0.29631	7e-06
31	C	0.64655	0.307604	0.999999
32	C	0.628385	0.284531	0.999998
33	N	0.632014	0.264048	0
34	H	0.672794	0.390729	1e-06
35	H	0.720681	0.329246	8e-06
36	H	0.610028	0.281236	0.999997
37	C	0.61859	0.382708	0
38	C	0.594941	0.376086	0.94957
39	C	0.586106	0.389387	0.058104
40	C	0.603348	0.405675	0.186858
41	C	0.600808	0.422087	0.318546
42	C	0.619068	0.441093	0.423992
43	C	0.609938	0.45357	0.53919
44	C	0.584929	0.443958	0.517956
45	C	0.569871	0.452126	0.611333
46	C	0.563291	0.449286	0.801754
47	C	0.548302	0.459825	0.847146
48	C	0.54418	0.470613	0.690334
49	C	0.530089	0.483517	0.680065
50	C	0.542367	0.508468	0.728093
51	C	0.529959	0.521707	0.726689
52	C	0.504992	0.510283	0.678098
53	C	0.492559	0.523582	0.678947
54	C	0.467618	0.51232	0.631713
55	C	0.454115	0.48735	0.580305
56	C	0.428702	0.475262	0.531181
57	C	0.414099	0.487666	0.535792
58	C	0.399559	0.488164	0.682086
59	C	0.387799	0.501879	0.632654
60	C	0.393925	0.511602	0.450975
61	C	0.385289	0.52614	0.356043
62	C	0.361877	0.518187	0.287654
63	C	0.359637	0.537539	0.200952
64	C	0.38129	0.559909	0.206898
65	C	0.38573	0.583352	0.133812
66	C	0.408077	0.604919	0.114431
67	C	0.405589	0.624597	0.036784
68	C	0.38141	0.617292	0
69	S	0.361952	0.58765	0.056696
70	S	0.404092	0.556825	0.318839
71	S	0.41337	0.503671	0.340272
72	C	0.416486	0.450367	0.481382
73	C	0.42899	0.437224	0.479738
74	C	0.453941	0.448633	0.528764
75	C	0.466332	0.435292	0.529193
76	C	0.491188	0.446468	0.578933
77	C	0.504737	0.471487	0.628977
78	C	0.492183	0.485127	0.628348
79	C	0.466738	0.473775	0.578911
80	S	0.55838	0.467915	0.490084
81	S	0.57267	0.419728	0.363384
82	S	0.630148	0.404258	0.173279
83	H	0.584395	0.362589	0.841334
84	H	0.567852	0.38705	0.040225
85	H	0.638342	0.446215	0.419053
86	H	0.621322	0.469029	0.630841
87	H	0.568761	0.4399	0.90366
88	H	0.540923	0.459525	0.987792
89	H	0.561768	0.517723	0.767253
90	H	0.539987	0.541045	0.764652
91	H	0.502101	0.542936	0.71664
92	H	0.458828	0.523537	0.635191
93	H	0.397466	0.479128	0.818221
94	H	0.375633	0.504627	0.726789
95	H	0.347052	0.499348	0.296864
96	H	0.342714	0.534836	0.136721
97	H	0.425673	0.606717	0.153326
98	H	0.420781	0.642873	0.010191
99	H	0.397032	0.44105	0.443835
100	H	0.419002	0.417928	0.440475
101	H	0.456792	0.415951	0.491041
102	H	0.499926	0.435201	0.577167
103	C	0.616856	0.234458	0
104	C	0.623594	0.217564	0.94957
105	C	0.610294	0.195543	0.058104
106	C	0.59389	0.196448	0.186858
107	C	0.577445	0.177581	0.318546
108	C	0.558312	0.176791	0.423992
109	C	0.54584	0.155298	0.53919
110	C	0.555582	0.140032	0.517956
111	C	0.547455	0.116942	0.611333
112	C	0.55033	0.113235	0.801754
113	C	0.539825	0.087854	0.847146
114	C	0.529026	0.073017	0.690334
115	C	0.516146	0.046171	0.680065
116	C	0.491077	0.033519	0.728093
117	C	0.477854	0.008012	0.726689
118	C	0.489413	0.994592	0.678098
119	C	0.47613	0.969	0.678947
120	C	0.487526	0.955443	0.631713
121	C	0.51262	0.966899	0.580305
122	C	0.524846	0.953696	0.531181
123	C	0.51247	0.926841	0.535792
124	C	0.512031	0.911904	0.682086
125	C	0.498328	0.886565	0.632654
126	C	0.488553	0.882968	0.450975
127	C	0.474012	0.859913	0.356043
128	C	0.482084	0.844581	0.287654
129	C	0.46269	0.823085	0.200952
130	C	0.44017	0.822313	0.206898
131	C	0.416645	0.803379	0.133812
132	C	0.394927	0.804096	0.114431
133	C	0.375207	0.782029	0.036784
134	C	0.382632	0.765289	0
135	S	0.412435	0.775482	0.056696
136	S	0.443166	0.848031	0.318839
137	S	0.496425	0.910178	0.340272
138	C	0.549858	0.966354	0.481382
139	C	0.562985	0.991862	0.479738
140	C	0.551441	0.005282	0.528764
141	C	0.564766	0.030873	0.529193
142	C	0.553457	0.044431	0.578933
143	C	0.528314	0.032972	0.628977
144	C	0.51469	0.006921	0.628348
145	C	0.526178	0.992954	0.578911
146	S	0.531671	0.089807	0.490084
147	S	0.579928	0.151985	0.363384
148	S	0.5952	0.224477	0.173279
149	H	0.637171	0.220531	0.841334
150	H	0.612714	0.179742	0.040225
151	H	0.553096	0.190833	0.419053
152	H	0.530292	0.15121	0.630841
153	H	0.559718	0.128014	0.90366
154	H	0.540157	0.080823	0.987792
155	H	0.481716	0.043571	0.767253
156	H	0.458422	0.998715	0.764652
157	H	0.456684	0.959204	0.71664
158	H	0.476316	0.935543	0.635191
159	H	0.5211	0.918823	0.818221
160	H	0.495623	0.871746	0.726789
161	H	0.501036	0.848617	0.296864
162	H	0.465471	0.808969	0.136721
163	H	0.393051	0.819781	0.153326
164	H	0.356818	0.778917	0.010191
165	H	0.559282	0.956312	0.443835
166	H	0.582374	0.001158	0.440475
167	H	0.584199	0.040659	0.491041
168	H	0.564717	0.064328	0.577167
169	C	0.764171	0.382454	0
170	C	0.781082	0.40597	0.94957
171	C	0.803218	0.414689	0.058104
172	C	0.802379	0.397496	0.186858
173	C	0.821365	0.399951	0.318546
174	C	0.822237	0.381736	0.423992
175	C	0.843839	0.390752	0.53919
176	C	0.859106	0.41563	0.517956
177	C	0.882292	0.430552	0.611333
178	C	0.885997	0.437098	0.801754
179	C	0.91149	0.451941	0.847146
180	C	0.926412	0.45599	0.690334
181	C	0.953383	0.469932	0.680065
182	C	0.966174	0.457633	0.728093
183	C	0.991804	0.469901	0.726689
184	C	0.005212	0.494746	0.678098
185	C	0.030929	0.507039	0.678947
186	C	0.044474	0.531856	0.631713
187	C	0.032883	0.545371	0.580305
188	C	0.04607	0.570662	0.531181
189	C	0.073048	0.585113	0.535792
190	C	0.088027	0.599552	0.682086
191	C	0.113491	0.611175	0.632654
192	C	0.117139	0.60505	0.450975
193	C	0.140317	0.613567	0.356043
194	C	0.155656	0.636852	0.287654
195	C	0.177291	0.638996	0.200952
196	C	0.178158	0.617398	0.206898
197	C	0.197242	0.612889	0.133812
198	C	0.196614	0.590605	0.114431
199	C	0.218822	0.592994	0.036784
200	C	0.235576	0.617039	0
201	S	0.225231	0.636488	0.056696
202	S	0.152359	0.594763	0.318839
203	S	0.089823	0.585771	0.340272
204	C	0.033273	0.582898	0.481382
205	C	0.007642	0.570534	0.479738
206	C	0.994235	0.545706	0.528764
207	C	0.968519	0.533455	0.529193
208	C	0.954973	0.508722	0.578933
209	C	0.966567	0.495161	0.628977
210	C	0.992745	0.507572	0.628348
211	C	0.006701	0.532891	0.578911
212	S	0.909566	0.441898	0.490084
213	S	0.847019	0.427907	0.363384
214	S	0.77427	0.370885	0.173279
215	H	0.778051	0.4165	0.841334
216	H	0.819051	0.432828	0.040225
217	H	0.808179	0.362572	0.419053
218	H	0.848004	0.379381	0.630841
219	H	0.871139	0.431705	0.90366
220	H	0.918538	0.459271	0.987792
221	H	0.956134	0.438326	0.767253
222	H	0.001208	0.45986	0.764652
223	H	0.040832	0.49748	0.71664
224	H	0.064474	0.54054	0.635191
225	H	0.081052	0.601669	0.818221
226	H	0.128362	0.623246	0.726789
227	H	0.15153	0.651655	0.296864
228	H	0.191432	0.655814	0.136721
229	H	0.180894	0.573121	0.153326
230	H	0.222018	0.577829	0.010191
231	H	0.043304	0.602258	0.443835
232	H	0.998241	0.580535	0.440475
233	H	0.958627	0.54301	0.491041
234	H	0.934975	0.50009	0.577167
