data_C78H36N12O6S12_2023-05-11_19:27:45
#******************************************
#
# CIF file created by Zeo++
# Zeo++ is an open source package to
# analyze microporous materials
#
#*******************************************

_cell_length_a		45.6035   
_cell_length_b		45.902   
_cell_length_c		7   
_cell_angle_alpha		90   
_cell_angle_beta		90   
_cell_angle_gamma		119.716   

_symmetry_space_group_name_H-M		'P1'
_symmetry_Int_Tables_number		1
_symmetry_cell_setting		Monoclinic

loop_
_symmetry_equiv_pos_as_xyz
'+x,+y,+z'

loop_
_atom_site_label
_atom_site_type_symbol
_atom_site_fract_x
_atom_site_fract_y
_atom_site_fract_z
1	C	0.367316	0.673765	0.999995
2	O	0.39711	0.678984	0.999991
3	C	0.340404	0.638885	0.999998
4	C	0.345653	0.613175	0
5	N	0.379004	0.619187	0
6	C	0.305949	0.632694	3e-06
7	O	0.281762	0.602631	5e-06
8	C	0.297652	0.659518	6e-06
9	C	0.265945	0.653045	5e-06
10	N	0.239759	0.61884	0
11	C	0.325859	0.69412	4e-06
12	O	0.319264	0.717317	7e-06
13	C	0.360869	0.701866	0.999999
14	C	0.385734	0.733432	0.999998
15	N	0.380713	0.761453	0
16	H	0.32505	0.588147	1e-06
17	H	0.259242	0.672259	8e-06
18	H	0.410904	0.737939	0.999997
19	C	0.632684	0.326235	0.999995
20	O	0.60289	0.321016	0.999991
21	C	0.659596	0.361115	0.999998
22	C	0.654347	0.386825	0
23	N	0.620996	0.380813	0
24	C	0.694051	0.367306	3e-06
25	O	0.718238	0.397369	5e-06
26	C	0.702348	0.340482	6e-06
27	C	0.734055	0.346955	5e-06
28	N	0.760241	0.38116	0
29	C	0.674141	0.30588	4e-06
30	O	0.680736	0.282683	7e-06
31	C	0.639131	0.298134	0.999999
32	C	0.614266	0.266568	0.999998
33	N	0.619287	0.238547	0
34	H	0.67495	0.411853	1e-06
35	H	0.740758	0.327741	8e-06
36	H	0.589096	0.262061	0.999997
37	C	0.399376	0.59912	0
38	C	0.386459	0.611843	0.131844
39	S	0.394345	0.604076	0.359772
40	C	0.414967	0.583763	0.280244
41	C	0.43102	0.56795	0.415472
42	C	0.429928	0.569025	0.611684
43	S	0.449509	0.549737	0.717853
44	C	0.459967	0.539436	0.502313
45	C	0.478663	0.521021	0.489585
46	C	0.489732	0.510117	0.644716
47	N	0.506976	0.49313	0.626719
48	C	0.513201	0.486999	0.446182
49	C	0.53186	0.468619	0.424442
50	C	0.541622	0.459001	0.259184
51	C	0.559542	0.44135	0.29485
52	C	0.573798	0.427306	0.136168
53	C	0.591081	0.410282	0.171978
54	C	0.600624	0.40088	0
55	C	0.590696	0.41066	0.838834
56	S	0.569515	0.431524	0.896207
57	C	0.563002	0.437943	0.487415
58	S	0.544899	0.455776	0.622403
59	C	0.502112	0.497923	0.291165
60	N	0.484863	0.514914	0.308509
61	C	0.448315	0.550914	0.353301
62	C	0.415832	0.58291	0.083296
63	H	0.372872	0.625226	0.106989
64	H	0.41863	0.580154	0.699954
65	H	0.485285	0.514495	0.791341
66	H	0.536193	0.464349	0.117036
67	H	0.596636	0.404811	0.313465
68	H	0.594703	0.406712	0.691059
69	H	0.575219	0.425909	0.558364
70	H	0.506633	0.49347	0.144868
71	H	0.452329	0.54696	0.205198
72	H	0.427611	0.571308	0.00304
73	C	0.400738	0.801587	0
74	C	0.388042	0.776141	0.131844
75	S	0.395793	0.791676	0.359772
76	C	0.416062	0.832302	0.280244
77	C	0.431842	0.863928	0.415472
78	C	0.430769	0.861777	0.611684
79	S	0.450016	0.900354	0.717853
80	C	0.460296	0.920957	0.502313
81	C	0.478672	0.957788	0.489585
82	C	0.489553	0.979595	0.644716
83	N	0.506505	0.013569	0.626719
84	C	0.512622	0.025832	0.446182
85	C	0.530963	0.062592	0.424442
86	C	0.540561	0.081826	0.259184
87	C	0.558175	0.117129	0.29485
88	C	0.572189	0.145215	0.136168
89	C	0.589177	0.179265	0.171978
90	C	0.598559	0.198066	0
91	C	0.588801	0.178507	0.838834
92	S	0.56798	0.136778	0.896207
93	C	0.561575	0.123944	0.487415
94	S	0.54378	0.088279	0.622403
95	C	0.501721	0.003985	0.291165
96	N	0.484766	0.970003	0.308509
97	C	0.448842	0.898001	0.353301
98	C	0.416913	0.834007	0.083296
99	H	0.374687	0.749374	0.106989
100	H	0.419664	0.83952	0.699954
101	H	0.485185	0.970838	0.791341
102	H	0.535225	0.07113	0.117036
103	H	0.594637	0.190206	0.313465
104	H	0.59274	0.186402	0.691059
105	H	0.573583	0.148013	0.558364
106	H	0.506165	0.012891	0.144868
107	H	0.452788	0.905909	0.205198
108	H	0.428491	0.857212	0.00304
109	C	0.199362	0.598773	0
110	C	0.224974	0.611496	0.131844
111	S	0.209338	0.603729	0.359772
112	C	0.168447	0.583415	0.280244
113	C	0.136614	0.567602	0.415472
114	C	0.138779	0.568678	0.611684
115	S	0.09995	0.549389	0.717853
116	C	0.079213	0.539087	0.502313
117	C	0.042141	0.520672	0.489585
118	C	0.020191	0.509768	0.644716
119	N	0.985995	0.492781	0.626719
120	C	0.973652	0.486649	0.446182
121	C	0.936652	0.468269	0.424442
122	C	0.917293	0.458653	0.259184
123	C	0.881759	0.441002	0.29485
124	C	0.853489	0.426958	0.136168
125	C	0.819217	0.409934	0.171978
126	C	0.800292	0.400533	0
127	C	0.81998	0.410314	0.838834
128	S	0.861981	0.431178	0.896207
129	C	0.874899	0.437593	0.487415
130	S	0.910797	0.455425	0.622403
131	C	0.995642	0.497573	0.291165
132	N	0.029846	0.514564	0.308509
133	C	0.102318	0.550565	0.353301
134	C	0.166731	0.582563	0.083296
135	H	0.251916	0.62488	0.106989
136	H	0.161181	0.579806	0.699954
137	H	0.029006	0.514148	0.791341
138	H	0.928058	0.464001	0.117036
139	H	0.808204	0.404462	0.313465
140	H	0.812033	0.406366	0.691059
141	H	0.850673	0.425558	0.558364
142	H	0.986678	0.493119	0.144868
143	H	0.094358	0.546611	0.205198
144	H	0.143374	0.57096	0.00304
