data_C105H51N9O6S18_2023-05-15_13:49:29
#******************************************
#
# CIF file created by Zeo++
# Zeo++ is an open source package to
# analyze microporous materials
#
#*******************************************

_cell_length_a		58.9777   
_cell_length_b		59.2762   
_cell_length_c		7   
_cell_angle_alpha		90   
_cell_angle_beta		90   
_cell_angle_gamma		119.78   

_symmetry_space_group_name_H-M		'P1'
_symmetry_Int_Tables_number		1
_symmetry_cell_setting		Monoclinic

loop_
_symmetry_equiv_pos_as_xyz
'+x,+y,+z'

loop_
_atom_site_label
_atom_site_type_symbol
_atom_site_fract_x
_atom_site_fract_y
_atom_site_fract_z
1	C	0.359617	0.672167	0.999995
2	O	0.38266	0.676211	0.999991
3	C	0.338773	0.645139	0.999998
4	C	0.342806	0.625218	0
5	N	0.3686	0.629876	0
6	C	0.312125	0.640342	3e-06
7	O	0.293393	0.617047	5e-06
8	C	0.305736	0.661128	6e-06
9	C	0.281213	0.656112	5e-06
10	N	0.260931	0.629607	0
11	C	0.327582	0.687939	4e-06
12	O	0.322505	0.705914	7e-06
13	C	0.35466	0.693941	0.999999
14	C	0.373918	0.718401	0.999998
15	N	0.370064	0.740113	0
16	H	0.32685	0.605824	1e-06
17	H	0.276049	0.671	8e-06
18	H	0.393385	0.721894	0.999997
19	C	0.640383	0.327833	0.999995
20	O	0.61734	0.323789	0.999991
21	C	0.661227	0.354861	0.999998
22	C	0.657194	0.374782	0
23	N	0.6314	0.370124	0
24	C	0.687875	0.359658	3e-06
25	O	0.706607	0.382953	5e-06
26	C	0.694264	0.338872	6e-06
27	C	0.718787	0.343888	5e-06
28	N	0.739069	0.370393	0
29	C	0.672418	0.312061	4e-06
30	O	0.677495	0.294086	7e-06
31	C	0.64534	0.306059	0.999999
32	C	0.626082	0.281599	0.999998
33	N	0.629936	0.259887	0
34	H	0.67315	0.394176	1e-06
35	H	0.723951	0.329	8e-06
36	H	0.606615	0.278106	0.999997
37	C	0.615668	0.385674	0
38	C	0.614553	0.369954	0.147302
39	S	0.598571	0.373189	0.339676
40	C	0.59305	0.395827	0.225488
41	C	0.579239	0.407329	0.318701
42	C	0.568978	0.402807	0.501422
43	C	0.556609	0.417628	0.545851
44	C	0.557447	0.433269	0.396465
45	C	0.546896	0.450739	0.396076
46	C	0.540907	0.460723	0.554557
47	C	0.530596	0.47724	0.506149
48	C	0.528894	0.479707	0.311186
49	C	0.519096	0.494631	0.207253
50	C	0.530679	0.508368	0.040645
51	N	0.522412	0.522606	0.941225
52	C	0.501365	0.523572	0.008873
53	C	0.493835	0.53944	0.891339
54	C	0.504881	0.551993	0.721103
55	C	0.492813	0.565741	0.645012
56	C	0.472691	0.563708	0.758367
57	C	0.456436	0.575198	0.721098
58	C	0.452601	0.583662	0.546443
59	C	0.4356	0.594298	0.55765
60	C	0.426683	0.593963	0.740947
61	C	0.409281	0.603117	0.805568
62	C	0.401611	0.604213	0.991061
63	C	0.384332	0.614326	0
64	C	0.378909	0.620805	0.824853
65	S	0.394934	0.614604	0.647294
66	S	0.439296	0.580553	0.896007
67	S	0.468841	0.544846	0.954954
68	C	0.488505	0.510502	0.174547
69	C	0.497508	0.496025	0.273929
70	S	0.539608	0.461608	0.190454
71	S	0.57351	0.42969	0.204904
72	C	0.603484	0.400522	0.042643
73	H	0.622236	0.356772	0.152409
74	H	0.570112	0.389436	0.60126
75	H	0.547395	0.416531	0.682032
76	H	0.543894	0.456616	0.700277
77	H	0.524925	0.486999	0.610711
78	H	0.54777	0.50868	0.979323
79	H	0.521086	0.551272	0.654114
80	H	0.49896	0.576744	0.51323
81	H	0.461405	0.582247	0.414461
82	H	0.430354	0.601837	0.434681
83	H	0.408149	0.598054	0.114922
84	H	0.366441	0.628832	0.791548
85	H	0.47161	0.511152	0.228595
86	H	0.487262	0.485703	0.402487
87	H	0.602419	0.414029	0.943816
88	C	0.613869	0.228519	0
89	C	0.629638	0.243061	0.147302
90	S	0.626464	0.223974	0.339676
91	C	0.603787	0.195956	0.225488
92	C	0.592312	0.170793	0.318701
93	C	0.596893	0.165108	0.501422
94	C	0.582085	0.138074	0.545851
95	C	0.566395	0.123334	0.396465
96	C	0.548922	0.095466	0.396076
97	C	0.538936	0.079581	0.554557
98	C	0.522418	0.0529	0.506149
99	C	0.519951	0.048754	0.311186
100	C	0.505029	0.024169	0.207253
101	C	0.491201	0.021992	0.040645
102	N	0.476959	0.999609	0.941225
103	C	0.476083	0.977753	0.008873
104	C	0.460204	0.95448	0.891339
105	C	0.447566	0.952949	0.721103
106	C	0.433832	0.92728	0.645012
107	C	0.43596	0.909327	0.758367
108	C	0.424509	0.881751	0.721098
109	C	0.416039	0.869518	0.546443
110	C	0.405447	0.842051	0.55765
111	C	0.405823	0.833531	0.740947
112	C	0.39672	0.807141	0.805568
113	C	0.395654	0.798436	0.991061
114	C	0.385588	0.771213	0
115	C	0.379116	0.759379	0.824853
116	S	0.385263	0.781461	0.647294
117	S	0.419215	0.859403	0.896007
118	S	0.454893	0.924285	0.954954
119	C	0.489247	0.977998	0.174547
120	C	0.503726	0.001349	0.273929
121	S	0.538055	0.07741	0.190454
122	S	0.569914	0.142844	0.204904
123	C	0.599031	0.20164	0.042643
124	H	0.642824	0.263813	0.152409
125	H	0.610297	0.179546	0.60126
126	H	0.583226	0.130019	0.682032
127	H	0.543042	0.086635	0.700277
128	H	0.512657	0.037555	0.610711
129	H	0.490813	0.038649	0.979323
130	H	0.448217	0.969754	0.654114
131	H	0.422771	0.922429	0.51323
132	H	0.417419	0.879667	0.414461
133	H	0.397909	0.829336	0.434681
134	H	0.401802	0.811058	0.114922
135	H	0.371121	0.73901	0.791548
136	H	0.48867	0.960578	0.228595
137	H	0.514123	0.001454	0.402487
138	H	0.585491	0.187135	0.943816
139	C	0.770058	0.385405	0
140	C	0.755404	0.386582	0.147302
141	S	0.774559	0.402433	0.339676
142	C	0.802758	0.407814	0.225488
143	C	0.828043	0.421475	0.318701
144	C	0.833724	0.431682	0.501422
145	C	0.8609	0.443895	0.545851
146	C	0.875752	0.442995	0.396465
147	C	0.903776	0.453392	0.396076
148	C	0.919751	0.459293	0.554557
149	C	0.94658	0.469457	0.506149
150	C	0.950749	0.471135	0.311186
151	C	0.97547	0.480797	0.207253
152	C	0.977715	0.469237	0.040645
153	N	0.000224	0.477382	0.941225
154	C	0.022146	0.498271	0.008873
155	C	0.045556	0.505677	0.891339
156	C	0.047147	0.494655	0.721103
157	C	0.07295	0.506576	0.645012
158	C	0.090944	0.526562	0.758367
159	C	0.11865	0.542648	0.721098
160	C	0.130954	0.546417	0.546443
161	C	0.158547	0.563248	0.55765
162	C	0.167089	0.572103	0.740947
163	C	0.193594	0.589339	0.805568
164	C	0.202329	0.596948	0.991061
165	C	0.229674	0.614058	0
166	C	0.24157	0.619413	0.824853
167	S	0.219398	0.603531	0.647294
168	S	0.141084	0.559641	0.896007
169	S	0.07586	0.530466	0.954954
170	C	0.021842	0.511097	0.174547
171	C	0.998361	0.502223	0.273929
172	S	0.921932	0.46058	0.190454
173	S	0.856171	0.427063	0.204904
174	C	0.797079	0.397435	0.042643
175	H	0.734535	0.379012	0.152409
176	H	0.819185	0.430615	0.60126
177	H	0.868973	0.453048	0.682032
178	H	0.912659	0.456347	0.700277
179	H	0.962013	0.475044	0.610711
180	H	0.961012	0.452268	0.979323
181	H	0.030291	0.478571	0.654114
182	H	0.077863	0.500424	0.51323
183	H	0.120771	0.537684	0.414461
184	H	0.171331	0.568423	0.434681
185	H	0.189644	0.590485	0.114922
186	H	0.262033	0.631756	0.791548
187	H	0.039314	0.527867	0.228595
188	H	0.99821	0.512441	0.402487
189	H	0.811685	0.398433	0.943816
