data_C96H48N12O6S12_2023-05-12_19:03:25
#******************************************
#
# CIF file created by Zeo++
# Zeo++ is an open source package to
# analyze microporous materials
#
#*******************************************

_cell_length_a		51.5185   
_cell_length_b		51.8169   
_cell_length_c		7   
_cell_angle_alpha		90   
_cell_angle_beta		90   
_cell_angle_gamma		119.748   

_symmetry_space_group_name_H-M		'P1'
_symmetry_Int_Tables_number		1
_symmetry_cell_setting		Monoclinic

loop_
_symmetry_equiv_pos_as_xyz
'+x,+y,+z'

loop_
_atom_site_label
_atom_site_type_symbol
_atom_site_fract_x
_atom_site_fract_y
_atom_site_fract_z
1	C	0.363418	0.672957	0.999995
2	O	0.389795	0.677582	0.999991
3	C	0.339577	0.642048	0.999998
4	C	0.344208	0.619266	0
5	N	0.373733	0.624593	0
6	C	0.309073	0.636562	3e-06
7	O	0.287646	0.609922	5e-06
8	C	0.301744	0.660332	6e-06
9	C	0.273674	0.654596	5e-06
10	N	0.250475	0.624286	0
11	C	0.326733	0.690994	4e-06
12	O	0.320909	0.71155	7e-06
13	C	0.357728	0.697858	0.999999
14	C	0.379757	0.72583	0.999998
15	N	0.375328	0.75066	0
16	H	0.325956	0.597087	1e-06
17	H	0.267752	0.671622	8e-06
18	H	0.402039	0.729824	0.999997
19	C	0.636582	0.327043	0.999995
20	O	0.610205	0.322418	0.999991
21	C	0.660423	0.357952	0.999998
22	C	0.655792	0.380734	0
23	N	0.626267	0.375407	0
24	C	0.690927	0.363438	3e-06
25	O	0.712354	0.390078	5e-06
26	C	0.698256	0.339668	6e-06
27	C	0.726326	0.345404	5e-06
28	N	0.749525	0.375714	0
29	C	0.673267	0.309006	4e-06
30	O	0.679091	0.28845	7e-06
31	C	0.642272	0.302142	0.999999
32	C	0.620243	0.27417	0.999998
33	N	0.624672	0.24934	0
34	H	0.674044	0.402913	1e-06
35	H	0.732248	0.328378	8e-06
36	H	0.597961	0.270176	0.999997
37	C	0.608246	0.393189	0
38	C	0.611802	0.38968	0.190284
39	C	0.598513	0.402792	0.305337
40	C	0.585318	0.415811	0.198847
41	C	0.570029	0.430897	0.272495
42	C	0.565761	0.435105	0.462301
43	C	0.549805	0.45085	0.487585
44	C	0.541888	0.458667	0.317087
45	C	0.525346	0.474993	0.284802
46	C	0.518999	0.48126	0.102268
47	C	0.503503	0.496552	0.084186
48	N	0.493963	0.505965	0.233441
49	C	0.499726	0.500274	0.413043
50	C	0.488514	0.511336	0.572328
51	C	0.492416	0.507486	0.765444
52	C	0.481135	0.518615	0.903835
53	C	0.466123	0.533427	0.847789
54	C	0.462779	0.536728	0.654049
55	C	0.447125	0.552175	0.582716
56	C	0.433715	0.565408	0.68364
57	C	0.420735	0.578216	0.563231
58	C	0.424289	0.574708	0.370978
59	C	0.414101	0.584761	0.208964
60	C	0.417691	0.581219	0.015955
61	C	0.404749	0.593989	0.894745
62	C	0.391754	0.606811	0
63	S	0.394807	0.603799	0.238293
64	S	0.443474	0.555776	0.34143
65	N	0.47375	0.525903	0.519754
66	C	0.515345	0.484858	0.440796
67	S	0.554383	0.446341	0.129181
68	S	0.589507	0.41168	0.958213
69	H	0.623188	0.378445	0.245767
70	H	0.598782	0.402526	0.460002
71	H	0.573632	0.427334	0.580437
72	H	0.544593	0.45599	0.627329
73	H	0.525727	0.474622	0.97304
74	H	0.498164	0.501824	0.944567
75	H	0.504029	0.496026	0.812715
76	H	0.48405	0.515739	0.0546
77	H	0.457364	0.54207	0.955538
78	H	0.433012	0.566103	0.837998
79	H	0.409322	0.589479	0.617909
80	H	0.429137	0.569925	0.962024
81	H	0.405155	0.593588	0.740143
82	H	0.51983	0.480429	0.584417
83	C	0.606301	0.213468	0
84	C	0.609803	0.220486	0.190284
85	C	0.596716	0.194262	0.305337
86	C	0.583721	0.168223	0.198847
87	C	0.568663	0.138051	0.272495
88	C	0.564463	0.12963	0.462301
89	C	0.548748	0.098141	0.487585
90	C	0.540945	0.082512	0.317087
91	C	0.52465	0.049863	0.284802
92	C	0.518394	0.037333	0.102268
93	C	0.50313	0.006751	0.084186
94	N	0.493735	0.987924	0.233441
95	C	0.499416	0.999303	0.413043
96	C	0.488375	0.977177	0.572328
97	C	0.492217	0.984877	0.765444
98	C	0.481108	0.962616	0.903835
99	C	0.466324	0.932992	0.847789
100	C	0.463029	0.926391	0.654049
101	C	0.447611	0.895497	0.582716
102	C	0.434403	0.869032	0.68364
103	C	0.421619	0.843416	0.563231
104	C	0.425121	0.850432	0.370978
105	C	0.415086	0.830325	0.208964
106	C	0.418622	0.83741	0.015955
107	C	0.405875	0.811869	0.894745
108	C	0.393078	0.786225	0
109	S	0.396084	0.792249	0.238293
110	S	0.444017	0.888294	0.34143
111	N	0.473834	0.948041	0.519754
112	C	0.514802	0.03013	0.440796
113	S	0.553248	0.107168	0.129181
114	S	0.587845	0.176487	0.958213
115	H	0.621017	0.242956	0.245767
116	H	0.596981	0.194793	0.460002
117	H	0.572219	0.145168	0.580437
118	H	0.543617	0.087858	0.627329
119	H	0.525019	0.05061	0.97304
120	H	0.497869	0.996211	0.944567
121	H	0.503655	0.007796	0.812715
122	H	0.483979	0.968368	0.0546
123	H	0.457697	0.915705	0.955538
124	H	0.433709	0.867643	0.837998
125	H	0.410377	0.820891	0.617909
126	H	0.429894	0.859997	0.962024
127	H	0.406275	0.812671	0.740143
128	H	0.519223	0.038984	0.584417
129	C	0.784989	0.392882	0
130	C	0.777931	0.389373	0.190284
131	C	0.804307	0.402485	0.305337
132	C	0.830497	0.415505	0.198847
133	C	0.860843	0.430592	0.272495
134	C	0.869312	0.434804	0.462301
135	C	0.900983	0.450548	0.487585
136	C	0.916703	0.45836	0.317087
137	C	0.949541	0.474683	0.284802
138	C	0.962143	0.480946	0.102268
139	C	0.992902	0.496236	0.084186
140	N	0.011838	0.50565	0.233441
141	C	0.000394	0.499963	0.413043
142	C	0.022647	0.511026	0.572328
143	C	0.014903	0.507177	0.765444
144	C	0.037293	0.518308	0.903835
145	C	0.067088	0.53312	0.847789
146	C	0.073728	0.53642	0.654049
147	C	0.1048	0.551867	0.582716
148	C	0.131418	0.565099	0.68364
149	C	0.157182	0.577907	0.563231
150	C	0.150126	0.5744	0.370978
151	C	0.170349	0.584453	0.208964
152	C	0.163222	0.58091	0.015955
153	C	0.188911	0.593681	0.894745
154	C	0.214704	0.606504	0
155	S	0.208645	0.603492	0.238293
156	S	0.112045	0.55547	0.34143
157	N	0.051952	0.525595	0.519754
158	C	0.969388	0.484551	0.440796
159	S	0.891905	0.44603	0.129181
160	S	0.822185	0.411373	0.958213
161	H	0.755331	0.378138	0.245767
162	H	0.803773	0.40222	0.460002
163	H	0.853684	0.427037	0.580437
164	H	0.911326	0.455691	0.627329
165	H	0.94879	0.474307	0.97304
166	H	0.003504	0.501505	0.944567
167	H	0.991851	0.495717	0.812715
168	H	0.031507	0.515432	0.0546
169	H	0.084475	0.541764	0.955538
170	H	0.132815	0.565793	0.837998
171	H	0.179837	0.589169	0.617909
172	H	0.140505	0.569616	0.962024
173	H	0.188105	0.59328	0.740143
174	H	0.960482	0.480125	0.584417
