data_C66H24N12O6S12_2023-05-30_11:17:38
#******************************************
#
# CIF file created by Zeo++
# Zeo++ is an open source package to
# analyze microporous materials
#
#*******************************************

_cell_length_a		42.8955   
_cell_length_b		43.194   
_cell_length_c		7   
_cell_angle_alpha		90   
_cell_angle_beta		90   
_cell_angle_gamma		119.698   

_symmetry_space_group_name_H-M		'P1'
_symmetry_Int_Tables_number		1
_symmetry_cell_setting		Monoclinic

loop_
_symmetry_equiv_pos_as_xyz
'+x,+y,+z'

loop_
_atom_site_label
_atom_site_type_symbol
_atom_site_fract_x
_atom_site_fract_y
_atom_site_fract_z
1	C	0.369458	0.674208	0.999995
2	O	0.401131	0.679754	0.999991
3	C	0.340861	0.637148	0.999998
4	C	0.346451	0.609832	0
5	N	0.381905	0.616219	0
6	C	0.304233	0.63057	3e-06
7	O	0.278531	0.598628	5e-06
8	C	0.295402	0.659072	6e-06
9	C	0.261695	0.652194	5e-06
10	N	0.23387	0.615851	0
11	C	0.325377	0.695836	4e-06
12	O	0.318356	0.720483	7e-06
13	C	0.362593	0.704066	0.999999
14	C	0.389017	0.737605	0.999998
15	N	0.383668	0.767377	0
16	H	0.324558	0.583239	1e-06
17	H	0.254562	0.672608	8e-06
18	H	0.415773	0.742394	0.999997
19	C	0.630542	0.325792	0.999995
20	O	0.598869	0.320246	0.999991
21	C	0.659139	0.362852	0.999998
22	C	0.653549	0.390168	0
23	N	0.618095	0.383781	0
24	C	0.695767	0.36943	3e-06
25	O	0.721469	0.401372	5e-06
26	C	0.704598	0.340928	6e-06
27	C	0.738305	0.347806	5e-06
28	N	0.76613	0.384149	0
29	C	0.674623	0.304164	4e-06
30	O	0.681644	0.279517	7e-06
31	C	0.637407	0.295934	0.999999
32	C	0.610983	0.262395	0.999998
33	N	0.616332	0.232623	0
34	H	0.675442	0.416761	1e-06
35	H	0.745438	0.327392	8e-06
36	H	0.584227	0.257606	0.999997
37	C	0.403571	0.594898	0
38	C	0.42193	0.576834	0.970406
39	C	0.431591	0.567324	0.147268
40	C	0.452893	0.546362	0.16144
41	N	0.462903	0.536515	0.005958
42	C	0.481051	0.518655	0.054449
43	C	0.495664	0.504277	0.926853
44	C	0.513406	0.486816	0.995116
45	C	0.517042	0.483234	0.1905
46	C	0.502429	0.497613	0.31809
47	C	0.484687	0.515074	0.249819
48	S	0.464561	0.534877	0.373161
49	N	0.53519	0.465373	0.239014
50	C	0.545191	0.455532	0.083491
51	C	0.566497	0.434561	0.095409
52	C	0.5754	0.425796	0.268817
53	S	0.598453	0.403106	0.241111
54	C	0.596429	0.405102	0
55	C	0.578795	0.42246	0.938009
56	S	0.533531	0.467012	0.871744
57	C	0.420079	0.578648	0.30255
58	S	0.397756	0.600616	0.234177
59	H	0.428296	0.570572	0.830937
60	H	0.492957	0.506944	0.774277
61	H	0.505135	0.494947	0.470667
62	H	0.569482	0.431619	0.410261
63	H	0.574957	0.426239	0.788736
64	H	0.423411	0.575367	0.452958
65	C	0.404942	0.810021	0
66	C	0.422965	0.846152	0.970406
67	C	0.432453	0.865169	0.147268
68	C	0.453368	0.907096	0.16144
69	N	0.463193	0.926793	0.005958
70	C	0.481013	0.962513	0.054449
71	C	0.495359	0.991272	0.926853
72	C	0.512781	0.026193	0.995116
73	C	0.516355	0.033353	0.1905
74	C	0.502008	0.004594	0.31809
75	C	0.484587	0.969673	0.249819
76	S	0.464828	0.930063	0.373161
77	N	0.534176	0.069074	0.239014
78	C	0.543994	0.088757	0.083491
79	C	0.564918	0.130696	0.095409
80	C	0.573664	0.148223	0.268817
81	S	0.596303	0.1936	0.241111
82	C	0.594311	0.189612	0
83	C	0.576992	0.1549	0.938009
84	S	0.53254	0.065803	0.871744
85	C	0.421155	0.842516	0.30255
86	S	0.399237	0.79858	0.234177
87	H	0.429213	0.858679	0.830937
88	H	0.492698	0.985942	0.774277
89	H	0.504668	0.009922	0.470667
90	H	0.567854	0.136575	0.410261
91	H	0.573221	0.147344	0.788736
92	H	0.424428	0.849076	0.452958
93	C	0.19093	0.594529	0
94	C	0.154548	0.576462	0.970406
95	C	0.135398	0.566954	0.147268
96	C	0.093181	0.54599	0.16144
97	N	0.073346	0.536139	0.005958
98	C	0.037378	0.518279	0.054449
99	C	0.00842	0.503899	0.926853
100	C	0.973256	0.486439	0.995116
101	C	0.966046	0.48286	0.1905
102	C	0.995005	0.497241	0.31809
103	C	0.030169	0.514701	0.249819
104	S	0.070054	0.534508	0.373161
105	N	0.930077	0.465001	0.239014
106	C	0.910258	0.455158	0.083491
107	C	0.868027	0.43419	0.095409
108	C	0.850379	0.425429	0.268817
109	S	0.804686	0.402742	0.241111
110	C	0.808703	0.404734	0
111	C	0.843655	0.422088	0.938009
112	S	0.933371	0.466633	0.871744
113	C	0.158208	0.578283	0.30255
114	S	0.20245	0.600252	0.234177
115	H	0.141934	0.570197	0.830937
116	H	0.013787	0.506562	0.774277
117	H	0.98964	0.494578	0.470667
118	H	0.862107	0.431253	0.410261
119	H	0.851264	0.425864	0.788736
120	H	0.151604	0.575005	0.452958
