data_C102H54N18O6S6_2023-05-10_21:21:21
#******************************************
#
# CIF file created by Zeo++
# Zeo++ is an open source package to
# analyze microporous materials
#
#*******************************************

_cell_length_a		53.1849   
_cell_length_b		53.4833   
_cell_length_c		7   
_cell_angle_alpha		90   
_cell_angle_beta		90   
_cell_angle_gamma		119.756   

_symmetry_space_group_name_H-M		'P1'
_symmetry_Int_Tables_number		1
_symmetry_cell_setting		Monoclinic

loop_
_symmetry_equiv_pos_as_xyz
'+x,+y,+z'

loop_
_atom_site_label
_atom_site_type_symbol
_atom_site_fract_x
_atom_site_fract_y
_atom_site_fract_z
1	C	0.362477	0.672761	0.999995
2	O	0.388027	0.677242	0.999991
3	C	0.339377	0.642813	0.999998
4	C	0.34386	0.620739	0
5	N	0.372461	0.625901	0
6	C	0.309829	0.637498	3e-06
7	O	0.289069	0.611686	5e-06
8	C	0.302733	0.660529	6e-06
9	C	0.275541	0.654971	5e-06
10	N	0.253064	0.625603	0
11	C	0.326944	0.690238	4e-06
12	O	0.321305	0.710155	7e-06
13	C	0.356968	0.696888	0.999999
14	C	0.378311	0.723991	0.999998
15	N	0.374025	0.748049	0
16	H	0.326176	0.59925	1e-06
17	H	0.269808	0.671468	8e-06
18	H	0.399896	0.727861	0.999997
19	C	0.637523	0.327239	0.999995
20	O	0.611973	0.322758	0.999991
21	C	0.660623	0.357187	0.999998
22	C	0.65614	0.379261	0
23	N	0.627539	0.374099	0
24	C	0.690171	0.362502	3e-06
25	O	0.710931	0.388314	5e-06
26	C	0.697267	0.339471	6e-06
27	C	0.724459	0.345029	5e-06
28	N	0.746936	0.374397	0
29	C	0.673056	0.309762	4e-06
30	O	0.678695	0.289845	7e-06
31	C	0.643032	0.303112	0.999999
32	C	0.621689	0.276009	0.999998
33	N	0.625975	0.251951	0
34	H	0.673824	0.40075	1e-06
35	H	0.730192	0.328532	8e-06
36	H	0.600104	0.272139	0.999997
37	C	0.610085	0.391329	0
38	C	0.603467	0.397857	0.175216
39	C	0.588226	0.412899	0.140459
40	C	0.585835	0.415264	0.944123
41	C	0.572149	0.428773	0.83334
42	C	0.558583	0.442166	0.927885
43	C	0.545239	0.455337	0.828094
44	C	0.5308	0.469591	0.922727
45	N	0.518315	0.481916	0.828587
46	C	0.506629	0.493452	0.953286
47	C	0.491843	0.508047	0.902812
48	C	0.481099	0.518653	0.043874
49	C	0.484756	0.515045	0.236775
50	C	0.499541	0.50045	0.287252
51	C	0.510285	0.489844	0.146185
52	S	0.528924	0.471445	0.167806
53	N	0.473066	0.526586	0.361413
54	C	0.460581	0.538909	0.267353
55	C	0.446136	0.553169	0.362006
56	C	0.445627	0.553673	0.562366
57	C	0.432356	0.566774	0.659328
58	C	0.419298	0.579665	0.557149
59	C	0.419234	0.579727	0.356933
60	C	0.405282	0.5935	0.251919
61	C	0.390973	0.607624	0.31844
62	C	0.38134	0.617134	0.159984
63	C	0.389915	0.608671	0
64	N	0.40419	0.59458	0.054872
65	C	0.432782	0.566352	0.262011
66	S	0.462458	0.537055	0.022243
67	C	0.545772	0.45481	0.627788
68	C	0.559058	0.441693	0.531014
69	C	0.57213	0.42879	0.633132
70	N	0.599567	0.401713	0.862247
71	H	0.608846	0.392545	0.312797
72	H	0.579883	0.421131	0.249867
73	H	0.558513	0.442237	0.083002
74	H	0.488898	0.510954	0.752491
75	H	0.502493	0.497538	0.437561
76	H	0.455701	0.543729	0.644955
77	H	0.432188	0.56694	0.814617
78	H	0.409153	0.58968	0.637488
79	H	0.387655	0.610898	0.466823
80	H	0.36954	0.628781	0.164095
81	H	0.412606	0.586273	0.962095
82	H	0.432964	0.566171	0.10716
83	H	0.535703	0.464749	0.545118
84	H	0.559206	0.441546	0.375697
85	H	0.582198	0.41885	0.551568
86	H	0.601727	0.399585	0.720968
87	C	0.608174	0.217194	0
88	C	0.601657	0.204133	0.175216
89	C	0.586642	0.174045	0.140459
90	C	0.584282	0.16932	0.944123
91	C	0.570797	0.1423	0.83334
92	C	0.557428	0.115516	0.927885
93	C	0.544281	0.089172	0.828094
94	C	0.530052	0.060665	0.922727
95	N	0.517751	0.036016	0.828587
96	C	0.506235	0.012943	0.953286
97	C	0.491666	0.983752	0.902812
98	C	0.481079	0.96254	0.043874
99	C	0.484681	0.969758	0.236775
100	C	0.499249	0.998948	0.287252
101	C	0.509836	0.02016	0.146185
102	S	0.528203	0.05696	0.167806
103	N	0.473161	0.946677	0.361413
104	C	0.46086	0.92203	0.267353
105	C	0.446626	0.89351	0.362006
106	C	0.446123	0.892504	0.562366
107	C	0.433046	0.866303	0.659328
108	C	0.420178	0.840521	0.557149
109	C	0.420116	0.840396	0.356933
110	C	0.406368	0.81285	0.251919
111	C	0.392269	0.784601	0.31844
112	C	0.382776	0.765581	0.159984
113	C	0.391224	0.782509	0
114	N	0.40529	0.810692	0.054872
115	C	0.433467	0.867145	0.262011
116	S	0.462711	0.925737	0.022243
117	C	0.544808	0.090226	0.627788
118	C	0.5579	0.116457	0.531014
119	C	0.57078	0.142265	0.633132
120	N	0.597809	0.196427	0.862247
121	H	0.60696	0.214755	0.312797
122	H	0.578425	0.157577	0.249867
123	H	0.557357	0.115375	0.083002
124	H	0.488765	0.977938	0.752491
125	H	0.502157	0.004775	0.437561
126	H	0.456049	0.912392	0.644955
127	H	0.432879	0.86597	0.814617
128	H	0.410181	0.820492	0.637488
129	H	0.389001	0.778051	0.466823
130	H	0.37115	0.742286	0.164095
131	H	0.413582	0.827307	0.962095
132	H	0.433647	0.867505	0.10716
133	H	0.534886	0.070346	0.545118
134	H	0.558047	0.11675	0.375697
135	H	0.580702	0.162143	0.551568
136	H	0.599933	0.200687	0.720968
137	C	0.781291	0.391031	0
138	C	0.794426	0.397564	0.175216
139	C	0.824682	0.412609	0.140459
140	C	0.829433	0.41497	0.944123
141	C	0.856604	0.42848	0.83334
142	C	0.883539	0.441872	0.927885
143	C	0.91003	0.455044	0.828094
144	C	0.938697	0.469297	0.922727
145	N	0.963484	0.481622	0.828587
146	C	0.986687	0.493159	0.953286
147	C	0.016041	0.507755	0.902812
148	C	0.037372	0.51836	0.043874
149	C	0.030113	0.51475	0.236775
150	C	0.00076	0.500155	0.287252
151	C	0.979429	0.489549	0.146185
152	S	0.942423	0.471149	0.167806
153	N	0.053324	0.526291	0.361413
154	C	0.078109	0.538615	0.267353
155	C	0.106788	0.552874	0.362006
156	C	0.1078	0.553377	0.562366
157	C	0.134148	0.566477	0.659328
158	C	0.160074	0.579368	0.557149
159	C	0.1602	0.579431	0.356933
160	C	0.1879	0.593203	0.251919
161	C	0.216308	0.607329	0.31844
162	C	0.235434	0.616838	0.159984
163	C	0.218412	0.608374	0
164	N	0.19007	0.594282	0.054872
165	C	0.133301	0.566057	0.262011
166	S	0.074381	0.536762	0.022243
167	C	0.90897	0.454518	0.627788
168	C	0.882592	0.441403	0.531014
169	C	0.85664	0.428499	0.633132
170	N	0.802174	0.401414	0.862247
171	H	0.783744	0.392254	0.312797
172	H	0.841242	0.420846	0.249867
173	H	0.88368	0.441941	0.083002
174	H	0.021888	0.510662	0.752491
175	H	0.994901	0.497241	0.437561
176	H	0.087801	0.543433	0.644955
177	H	0.134482	0.566643	0.814617
178	H	0.180216	0.589382	0.637488
179	H	0.222894	0.610604	0.466823
180	H	0.25886	0.628486	0.164095
181	H	0.173362	0.585974	0.962095
182	H	0.132939	0.565877	0.10716
183	H	0.928962	0.464458	0.545118
184	H	0.882297	0.441257	0.375697
185	H	0.83665	0.41856	0.551568
186	H	0.797891	0.399282	0.720968
