data_C102H51N9O6S18_2023-05-13_10:55:39
#******************************************
#
# CIF file created by Zeo++
# Zeo++ is an open source package to
# analyze microporous materials
#
#*******************************************

_cell_length_a		60.8066   
_cell_length_b		61.105   
_cell_length_c		7   
_cell_angle_alpha		90   
_cell_angle_beta		90   
_cell_angle_gamma		119.787   

_symmetry_space_group_name_H-M		'P1'
_symmetry_Int_Tables_number		1
_symmetry_cell_setting		Monoclinic

loop_
_symmetry_equiv_pos_as_xyz
'+x,+y,+z'

loop_
_atom_site_label
_atom_site_type_symbol
_atom_site_fract_x
_atom_site_fract_y
_atom_site_fract_z
1	C	0.358827	0.672002	0.999995
2	O	0.381177	0.675926	0.999991
3	C	0.338607	0.645782	0.999998
4	C	0.342516	0.626455	0
5	N	0.367534	0.630975	0
6	C	0.312759	0.641128	3e-06
7	O	0.294588	0.618529	5e-06
8	C	0.306565	0.661293	6e-06
9	C	0.282779	0.656427	5e-06
10	N	0.263103	0.630714	0
11	C	0.327757	0.687304	4e-06
12	O	0.322836	0.704742	7e-06
13	C	0.354022	0.693127	0.999999
14	C	0.372704	0.716856	0.999998
15	N	0.368969	0.73792	0
16	H	0.327037	0.607641	1e-06
17	H	0.277773	0.670871	8e-06
18	H	0.391586	0.720244	0.999997
19	C	0.641173	0.327998	0.999995
20	O	0.618823	0.324074	0.999991
21	C	0.661393	0.354218	0.999998
22	C	0.657484	0.373545	0
23	N	0.632466	0.369025	0
24	C	0.687241	0.358872	3e-06
25	O	0.705412	0.381471	5e-06
26	C	0.693435	0.338707	6e-06
27	C	0.717221	0.343573	5e-06
28	N	0.736897	0.369286	0
29	C	0.672243	0.312696	4e-06
30	O	0.677164	0.295258	7e-06
31	C	0.645978	0.306873	0.999999
32	C	0.627296	0.283144	0.999998
33	N	0.631031	0.26208	0
34	H	0.672963	0.392359	1e-06
35	H	0.722227	0.329129	8e-06
36	H	0.608414	0.279756	0.999997
37	C	0.617209	0.38411	0
38	C	0.616566	0.384665	0.195347
39	C	0.603624	0.397436	0.259543
40	C	0.594874	0.406151	0.111093
41	C	0.581075	0.41979	0.128575
42	C	0.574085	0.426634	0.296418
43	C	0.56064	0.439942	0.265278
44	C	0.557446	0.443178	0.073803
45	C	0.544826	0.455694	0.989532
46	C	0.541624	0.458934	0.797659
47	C	0.528181	0.472245	0.766147
48	C	0.52142	0.478869	0.934772
49	C	0.506541	0.493584	0.949055
50	C	0.498316	0.501781	0.796245
51	N	0.486122	0.513819	0.867227
52	C	0.486303	0.513564	0.063925
53	C	0.474948	0.524753	0.179573
54	C	0.474253	0.52535	0.376315
55	C	0.461437	0.538007	0.445231
56	C	0.4525	0.546923	0.300231
57	C	0.438739	0.560542	0.322417
58	C	0.432046	0.567179	0.492558
59	C	0.418555	0.580524	0.465906
60	C	0.415021	0.584005	0.275549
61	C	0.402111	0.596774	0.200652
62	C	0.390893	0.60786	0.306097
63	C	0.379696	0.618939	0.189997
64	C	0.382791	0.61589	0
65	S	0.398674	0.600187	0.959701
66	S	0.428329	0.570823	0.133163
67	S	0.460022	0.539578	0.081719
68	C	0.498994	0.500987	0.117485
69	S	0.531241	0.46908	0.12807
70	S	0.571003	0.429827	0.935763
71	S	0.602748	0.398454	0.894389
72	H	0.624791	0.376492	0.288469
73	H	0.600965	0.400003	0.409162
74	H	0.578292	0.422417	0.437475
75	H	0.553717	0.446743	0.380452
76	H	0.548548	0.452128	0.68253
77	H	0.523849	0.476583	0.625998
78	H	0.499966	0.500208	0.643732
79	H	0.47807	0.521817	0.788024
80	H	0.482527	0.517114	0.468342
81	H	0.459034	0.540315	0.595768
82	H	0.436514	0.562772	0.632057
83	H	0.411845	0.587175	0.583374
84	H	0.390598	0.608143	0.460741
85	H	0.370032	0.628491	0.244588
86	H	0.502471	0.49749	0.262824
87	C	0.615443	0.231649	0
88	C	0.614889	0.230458	0.195347
89	C	0.602139	0.204891	0.259543
90	C	0.593437	0.187525	0.111093
91	C	0.57982	0.160242	0.128575
92	C	0.572987	0.146486	0.296418
93	C	0.5597	0.119885	0.265278
94	C	0.556469	0.113491	0.073803
95	C	0.543972	0.088497	0.989532
96	C	0.540737	0.082092	0.797659
97	C	0.527448	0.055489	0.766147
98	C	0.520834	0.04218	0.934772
99	C	0.506142	0.012754	0.949055
100	C	0.497958	0.996424	0.796245
101	N	0.485939	0.972328	0.867227
102	C	0.486194	0.972763	0.063925
103	C	0.475023	0.950347	0.179573
104	C	0.474427	0.949062	0.376315
105	C	0.46179	0.923733	0.445231
106	C	0.452888	0.905981	0.300231
107	C	0.43929	0.878756	0.322417
108	C	0.432664	0.865502	0.492558
109	C	0.41934	0.838817	0.465906
110	C	0.415864	0.831842	0.275549
111	C	0.403116	0.806308	0.200652
112	C	0.392047	0.784131	0.306097
113	C	0.380985	0.76198	0.189997
114	C	0.38403	0.76809	0
115	S	0.399708	0.799496	0.959701
116	S	0.429025	0.858181	0.133163
117	S	0.460221	0.920764	0.081719
118	C	0.498751	0.997888	0.117485
119	S	0.530608	0.061679	0.12807
120	S	0.569798	0.140247	0.935763
121	S	0.601122	0.203008	0.894389
122	H	0.62305	0.246764	0.288469
123	H	0.599576	0.199695	0.409162
124	H	0.577198	0.154863	0.437475
125	H	0.55291	0.106238	0.380452
126	H	0.547533	0.095744	0.68253
127	H	0.523116	0.046869	0.625998
128	H	0.499528	0.999629	0.643732
129	H	0.477954	0.95637	0.788024
130	H	0.482651	0.965479	0.468342
131	H	0.459487	0.919049	0.595768
132	H	0.437064	0.874326	0.632057
133	H	0.4127	0.825533	0.583374
134	H	0.391765	0.783556	0.460741
135	H	0.371449	0.742873	0.244588
136	H	0.502243	0.004822	0.262824
137	C	0.766955	0.38385	0
138	C	0.768152	0.384486	0.195347
139	C	0.793844	0.397282	0.259543
140	C	0.811295	0.405933	0.111093
141	C	0.838712	0.419577	0.128575
142	C	0.852535	0.426489	0.296418
143	C	0.879267	0.439782	0.265278
144	C	0.885692	0.442939	0.073803
145	C	0.910808	0.455418	0.989532
146	C	0.917245	0.458583	0.797659
147	C	0.943978	0.471875	0.766147
148	C	0.957353	0.47856	0.934772
149	C	0.986923	0.493271	0.949055
150	C	0.003332	0.501404	0.796245
151	N	0.027546	0.513461	0.867227
152	C	0.027109	0.513282	0.063925
153	C	0.049635	0.524509	0.179573
154	C	0.050926	0.525197	0.376315
155	C	0.07638	0.537869	0.445231
156	C	0.094219	0.546705	0.300231
157	C	0.121578	0.560311	0.322417
158	C	0.134897	0.566929	0.492558
159	C	0.161712	0.580268	0.465906
160	C	0.168721	0.583762	0.275549
161	C	0.19438	0.596527	0.200652
162	C	0.216666	0.607618	0.306097
163	C	0.238926	0.61869	0.189997
164	C	0.232785	0.615629	0
165	S	0.201225	0.599925	0.959701
166	S	0.142253	0.570604	0.133163
167	S	0.079363	0.539267	0.081719
168	C	0.001861	0.500734	0.117485
169	S	0.937758	0.46885	0.12807
170	S	0.858805	0.429535	0.935763
171	S	0.795737	0.398147	0.894389
172	H	0.751766	0.376353	0.288469
173	H	0.799065	0.399911	0.409162
174	H	0.844116	0.422329	0.437475
175	H	0.89298	0.446628	0.380452
176	H	0.903526	0.451737	0.68253
177	H	0.952641	0.476158	0.625998
178	H	0.000112	0.499772	0.643732
179	H	0.043583	0.521422	0.788024
180	H	0.034428	0.517016	0.468342
181	H	0.081086	0.540245	0.595768
182	H	0.126029	0.562511	0.632057
183	H	0.175061	0.586902	0.583374
184	H	0.217244	0.60791	0.460741
185	H	0.258126	0.628244	0.244588
186	H	0.994893	0.497296	0.262824
