data_C57H30N6O6S6_2023-05-30_11:57:59
#******************************************
#
# CIF file created by Zeo++
# Zeo++ is an open source package to
# analyze microporous materials
#
#*******************************************

_cell_length_a		35.3958   
_cell_length_b		35.6944   
_cell_length_c		7   
_cell_angle_alpha		90   
_cell_angle_beta		90   
_cell_angle_gamma		119.635   

_symmetry_space_group_name_H-M		'P1'
_symmetry_Int_Tables_number		1
_symmetry_cell_setting		Monoclinic

loop_
_symmetry_equiv_pos_as_xyz
'+x,+y,+z'

loop_
_atom_site_label
_atom_site_type_symbol
_atom_site_fract_x
_atom_site_fract_y
_atom_site_fract_z
1	C	0.377101	0.675787	0.999995
2	O	0.415476	0.682494	0.999991
3	C	0.342502	0.630969	0.999998
4	C	0.349319	0.597934	0
5	N	0.392275	0.605659	0
6	C	0.298123	0.623014	3e-06
7	O	0.267025	0.584385	5e-06
8	C	0.287376	0.657482	6e-06
9	C	0.246539	0.649164	5e-06
10	N	0.212874	0.605213	0
11	C	0.323645	0.701942	4e-06
12	O	0.315099	0.731749	7e-06
13	C	0.368735	0.711895	0.999999
14	C	0.400704	0.752455	0.999998
15	N	0.394176	0.78846	0
16	H	0.322828	0.565774	1e-06
17	H	0.237863	0.673852	8e-06
18	H	0.433123	0.758247	0.999997
19	C	0.622899	0.324213	0.999995
20	O	0.584524	0.317506	0.999991
21	C	0.657498	0.369031	0.999998
22	C	0.650681	0.402066	0
23	N	0.607725	0.394341	0
24	C	0.701877	0.376986	3e-06
25	O	0.732975	0.415615	5e-06
26	C	0.712624	0.342518	6e-06
27	C	0.753461	0.350836	5e-06
28	N	0.787126	0.394787	0
29	C	0.676355	0.298058	4e-06
30	O	0.684901	0.268251	7e-06
31	C	0.631265	0.288105	0.999999
32	C	0.599296	0.247545	0.999998
33	N	0.605824	0.21154	0
34	H	0.677172	0.434226	1e-06
35	H	0.762137	0.326148	8e-06
36	H	0.566877	0.241753	0.999997
37	C	0.581435	0.420127	0
38	C	0.582616	0.440533	0.832822
39	C	0.560993	0.465081	0.853147
40	C	0.544117	0.462863	0.034898
41	C	0.520536	0.483169	0.102185
42	C	0.513356	0.48746	0.28744
43	C	0.488054	0.51075	0.307047
44	C	0.481625	0.519548	0.101739
45	C	0.459747	0.540849	0.026506
46	C	0.453029	0.548913	0.838965
47	C	0.429239	0.571464	0.823432
48	C	0.418565	0.579873	0
49	S	0.436376	0.561399	0.181241
50	C	0.500824	0.503208	0.989276
51	S	0.555186	0.429842	0.177806
52	H	0.597927	0.438301	0.702699
53	H	0.558156	0.483877	0.738243
54	H	0.523923	0.476536	0.409498
55	H	0.456956	0.490303	0.378262
56	H	0.506728	0.540712	0.387448
57	H	0.464624	0.539094	0.716119
58	H	0.420726	0.580709	0.689843
59	H	0.502002	0.503932	0.835177
60	C	0.579203	0.159525	0
61	C	0.558691	0.140434	0.832822
62	C	0.534185	0.094703	0.853147
63	C	0.536537	0.080231	0.034898
64	C	0.516307	0.036775	0.102185
65	C	0.512048	0.025421	0.28744
66	C	0.488833	0.977303	0.307047
67	C	0.480041	0.962218	0.101739
68	C	0.458799	0.919457	0.026506
69	C	0.450745	0.904815	0.838965
70	C	0.428262	0.858925	0.823432
71	C	0.419891	0.840031	0
72	S	0.438322	0.875968	0.181241
73	C	0.496317	0.997407	0.989276
74	S	0.569634	0.123946	0.177806
75	H	0.560821	0.157778	0.702699
76	H	0.51532	0.073242	0.738243
77	H	0.522947	0.046706	0.409498
78	H	0.509605	0.966875	0.378262
79	H	0.458592	0.966012	0.387448
80	H	0.460527	0.926019	0.716119
81	H	0.419035	0.841336	0.689843
82	H	0.495581	0.997853	0.835177
83	C	0.838687	0.419681	0
84	C	0.858018	0.418365	0.832822
85	C	0.904147	0.439548	0.853147
86	C	0.918671	0.456239	0.034898
87	C	0.962481	0.479387	0.102185
88	C	0.973921	0.486451	0.28744
89	C	0.022438	0.511279	0.307047
90	C	0.037659	0.517566	0.101739
91	C	0.080779	0.539026	0.026506
92	C	0.09555	0.545603	0.838965
93	C	0.141824	0.568943	0.823432
94	C	0.160869	0.579428	0
95	S	0.124626	0.561965	0.181241
96	C	0.002183	0.498717	0.989276
97	S	0.874505	0.445544	0.177806
98	H	0.840577	0.403254	0.702699
99	H	0.925849	0.442213	0.738243
100	H	0.952455	0.47609	0.409498
101	H	0.032764	0.542154	0.378262
102	H	0.034005	0.492608	0.387448
103	H	0.074174	0.534219	0.716119
104	H	0.159564	0.577287	0.689843
105	H	0.001741	0.497547	0.835177
