data_C72H36N6O6S12_2023-05-11_20:47:35
#******************************************
#
# CIF file created by Zeo++
# Zeo++ is an open source package to
# analyze microporous materials
#
#*******************************************

_cell_length_a		26.5073   
_cell_length_b		26.8062   
_cell_length_c		7   
_cell_angle_alpha		90   
_cell_angle_beta		90   
_cell_angle_gamma		119.513   

_symmetry_space_group_name_H-M		'P1'
_symmetry_Int_Tables_number		1
_symmetry_cell_setting		Monoclinic

loop_
_symmetry_equiv_pos_as_xyz
'+x,+y,+z'

loop_
_atom_site_label
_atom_site_type_symbol
_atom_site_fract_x
_atom_site_fract_y
_atom_site_fract_z
1	C	0.391746	0.678797	0.999995
2	O	0.442967	0.687717	0.999991
3	C	0.345693	0.619189	0.999998
4	C	0.354904	0.575253	0
5	N	0.412239	0.585528	0
6	C	0.286459	0.608609	3e-06
7	O	0.24506	0.557234	5e-06
8	C	0.271995	0.654451	6e-06
9	C	0.217492	0.643389	5e-06
10	N	0.172682	0.584935	0
11	C	0.320281	0.713582	4e-06
12	O	0.308771	0.753224	7e-06
13	C	0.380457	0.726819	0.999999
14	C	0.423013	0.780763	0.999998
15	N	0.414178	0.828649	0
16	H	0.319635	0.532482	1e-06
17	H	0.205826	0.676224	8e-06
18	H	0.466283	0.788466	0.999997
19	C	0.608254	0.321203	0.999995
20	O	0.557033	0.312283	0.999991
21	C	0.654307	0.380811	0.999998
22	C	0.645096	0.424747	0
23	N	0.587761	0.414472	0
24	C	0.713541	0.391391	3e-06
25	O	0.75494	0.442766	5e-06
26	C	0.728005	0.345549	6e-06
27	C	0.782508	0.356611	5e-06
28	N	0.827318	0.415065	0
29	C	0.679719	0.286418	4e-06
30	O	0.691229	0.246776	7e-06
31	C	0.619543	0.273181	0.999999
32	C	0.576987	0.219237	0.999998
33	N	0.585822	0.171351	0
34	H	0.680365	0.467518	1e-06
35	H	0.794174	0.323776	8e-06
36	H	0.533717	0.211534	0.999997
37	C	0.447428	0.551234	0
38	C	0.470435	0.609216	0.978668
39	S	0.498524	0.644321	0.189326
40	C	0.48032	0.581645	0.309408
41	C	0.493897	0.579818	0.50878
42	C	0.467001	0.532859	0.629031
43	C	0.494833	0.541872	0.810563
44	C	0.480283	0.500271	0.959303
45	C	0.463862	0.444223	0.94359
46	C	0.45864	0.411892	0.774525
47	C	0.414936	0.35614	0.751406
48	S	0.417225	0.329289	0.532023
49	C	0.477541	0.391798	0.464302
50	C	0.502532	0.401314	0.274803
51	C	0.536852	0.454118	0.189081
52	C	0.552572	0.448766	0
53	C	0.531818	0.393023	0.944567
54	S	0.492306	0.346566	0.123072
55	C	0.49654	0.430909	0.613076
56	C	0.538634	0.59772	0.830378
57	S	0.548753	0.636901	0.627059
58	C	0.452061	0.534864	0.18867
59	H	0.47248	0.632894	0.851139
60	H	0.43014	0.492579	0.585352
61	H	0.48316	0.516411	0.104157
62	H	0.452827	0.419975	0.07668
63	H	0.380608	0.329841	0.850073
64	H	0.549014	0.494675	0.258065
65	H	0.537491	0.377014	0.809155
66	H	0.53497	0.472749	0.603307
67	H	0.566487	0.617585	0.952327
68	H	0.436561	0.490991	0.233363
69	C	0.448347	0.897237	0
70	C	0.38977	0.86246	0.978668
71	S	0.354167	0.855339	0.189326
72	C	0.417421	0.89949	0.309408
73	C	0.419127	0.91466	0.50878
74	C	0.466647	0.934693	0.629031
75	C	0.457305	0.953157	0.810563
76	C	0.499314	0.980034	0.959303
77	C	0.555879	0.019375	0.94359
78	C	0.588467	0.046252	0.774525
79	C	0.645001	0.058452	0.751406
80	S	0.672	0.087293	0.532023
81	C	0.608505	0.084749	0.464302
82	C	0.598684	0.099919	0.274803
83	C	0.545209	0.081403	0.189081
84	C	0.550441	0.102172	0
85	C	0.606742	0.136949	0.944567
86	S	0.653881	0.14407	0.123072
87	C	0.568959	0.064716	0.613076
88	C	0.400674	0.940956	0.830378
89	S	0.361144	0.912116	0.627059
90	C	0.464776	0.918006	0.18867
91	H	0.365921	0.841026	0.851139
92	H	0.507544	0.938307	0.585352
93	H	0.483042	0.966882	0.104157
94	H	0.580389	0.032527	0.07668
95	H	0.671803	0.050713	0.850073
96	H	0.504275	0.053211	0.258065
97	H	0.622797	0.158383	0.809155
98	H	0.526477	0.061102	0.603307
99	H	0.38041	0.948695	0.952327
100	H	0.50908	0.946198	0.233363
101	C	0.103324	0.550641	0
102	C	0.138894	0.527435	0.978668
103	S	0.146408	0.499451	0.189326
104	C	0.101358	0.517977	0.309408
105	C	0.086075	0.504634	0.50878
106	C	0.065451	0.531559	0.629031
107	C	0.04696	0.504083	0.810563
108	C	0.019502	0.518807	0.959303
109	C	0.979358	0.535514	0.94359
110	C	0.951991	0.540968	0.774525
111	C	0.939162	0.584519	0.751406
112	S	0.909874	0.58253	0.532023
113	C	0.913053	0.522565	0.464302
114	C	0.897883	0.497879	0.274803
115	C	0.917038	0.463591	0.189081
116	C	0.896086	0.448173	0
117	C	0.860538	0.46914	0.944567
118	S	0.852912	0.508476	0.123072
119	C	0.9336	0.503487	0.613076
120	C	0.059791	0.460435	0.830378
121	S	0.089202	0.450095	0.627059
122	C	0.082262	0.546242	0.18867
123	H	0.160698	0.525192	0.851139
124	H	0.061414	0.568226	0.585352
125	H	0.032897	0.515819	0.104157
126	H	0.965883	0.54661	0.07668
127	H	0.946688	0.618558	0.850073
128	H	0.94581	0.451226	0.258065
129	H	0.83881	0.463714	0.809155
130	H	0.937652	0.465261	0.603307
131	H	0.052201	0.432832	0.952327
132	H	0.053458	0.561923	0.233363
