data_C54H24N12O6S6_2023-05-29_11:06:42
#******************************************
#
# CIF file created by Zeo++
# Zeo++ is an open source package to
# analyze microporous materials
#
#*******************************************

_cell_length_a		35.9647   
_cell_length_b		36.2633   
_cell_length_c		7   
_cell_angle_alpha		90   
_cell_angle_beta		90   
_cell_angle_gamma		119.64   

_symmetry_space_group_name_H-M		'P1'
_symmetry_Int_Tables_number		1
_symmetry_cell_setting		Monoclinic

loop_
_symmetry_equiv_pos_as_xyz
'+x,+y,+z'

loop_
_atom_site_label
_atom_site_type_symbol
_atom_site_fract_x
_atom_site_fract_y
_atom_site_fract_z
1	C	0.376409	0.675645	0.999995
2	O	0.414178	0.682247	0.999991
3	C	0.342353	0.631527	0.999998
4	C	0.349058	0.599008	0
5	N	0.391336	0.606612	0
6	C	0.298675	0.623696	3e-06
7	O	0.268065	0.585671	5e-06
8	C	0.288102	0.657625	6e-06
9	C	0.24791	0.649438	5e-06
10	N	0.214773	0.606174	0
11	C	0.323803	0.701391	4e-06
12	O	0.315395	0.730731	7e-06
13	C	0.36818	0.711188	0.999999
14	C	0.399648	0.751114	0.999998
15	N	0.393227	0.786556	0
16	H	0.322982	0.567351	1e-06
17	H	0.239374	0.67374	8e-06
18	H	0.431555	0.756815	0.999997
19	C	0.623591	0.324355	0.999995
20	O	0.585822	0.317753	0.999991
21	C	0.657647	0.368473	0.999998
22	C	0.650942	0.400992	0
23	N	0.608664	0.393388	0
24	C	0.701325	0.376304	3e-06
25	O	0.731935	0.414329	5e-06
26	C	0.711898	0.342375	6e-06
27	C	0.75209	0.350562	5e-06
28	N	0.785227	0.393826	0
29	C	0.676197	0.298609	4e-06
30	O	0.684605	0.269269	7e-06
31	C	0.63182	0.288812	0.999999
32	C	0.600352	0.248886	0.999998
33	N	0.606773	0.213444	0
34	H	0.677018	0.432649	1e-06
35	H	0.760626	0.32626	8e-06
36	H	0.568445	0.243185	0.999997
37	C	0.417206	0.58123	0
38	C	0.417643	0.580804	0.195503
39	S	0.44359	0.555343	0.278899
40	C	0.454474	0.544666	0.051444
41	C	0.478094	0.521494	0.023971
42	C	0.487718	0.512049	0.844364
43	N	0.509474	0.490701	0.816609
44	C	0.521904	0.478505	0.976028
45	C	0.545525	0.455333	0.948555
46	C	0.561933	0.439238	0.083978
47	C	0.582794	0.41877	0
48	C	0.582356	0.419195	0.804497
49	S	0.556408	0.444655	0.7211
50	C	0.512281	0.48795	0.155635
51	N	0.490526	0.509298	0.18339
52	C	0.438067	0.560762	0.916021
53	H	0.404173	0.594018	0.293967
54	H	0.478324	0.521264	0.713653
55	H	0.559157	0.441963	0.236705
56	H	0.595825	0.40598	0.706033
57	H	0.521676	0.478735	0.286346
58	H	0.440844	0.558038	0.763294
59	C	0.418541	0.837321	0
60	C	0.418967	0.838175	0.195503
61	S	0.444359	0.889094	0.278899
62	C	0.455008	0.910449	0.051444
63	C	0.478118	0.956795	0.023971
64	C	0.487538	0.975683	0.844364
65	N	0.508828	0.018375	0.816609
66	C	0.520992	0.042767	0.976028
67	C	0.544102	0.089114	0.948555
68	C	0.560153	0.121306	0.083978
69	C	0.580567	0.162242	0
70	C	0.580142	0.161387	0.804497
71	S	0.55475	0.110469	0.7211
72	C	0.511571	0.023879	0.155635
73	N	0.490281	0.981188	0.18339
74	C	0.438955	0.878256	0.916021
75	H	0.405788	0.811745	0.293967
76	H	0.478347	0.95725	0.713653
77	H	0.557436	0.115858	0.236705
78	H	0.593322	0.187817	0.706033
79	H	0.520762	0.042312	0.286346
80	H	0.441671	0.883704	0.763294
81	C	0.163588	0.580792	0
82	C	0.162726	0.580363	0.195503
83	S	0.111386	0.554906	0.278899
84	C	0.089854	0.544228	0.051444
85	C	0.043123	0.521053	0.023971
86	C	0.024079	0.511611	0.844364
87	N	0.981034	0.490267	0.816609
88	C	0.95644	0.478071	0.976028
89	C	0.909709	0.454896	0.948555
90	C	0.87725	0.438798	0.083978
91	C	0.835975	0.418331	0
92	C	0.836837	0.41876	0.804497
93	S	0.888177	0.444218	0.7211
94	C	0.975483	0.487513	0.155635
95	N	0.018529	0.508857	0.18339
96	C	0.122313	0.560325	0.916021
97	H	0.189375	0.593579	0.293967
98	H	0.042665	0.520828	0.713653
99	H	0.882743	0.441521	0.236705
100	H	0.810188	0.405546	0.706033
101	H	0.956898	0.478295	0.286346
102	H	0.11682	0.5576	0.763294
