data_C84H48N12O6S6_2023-05-11_08:06:47
#******************************************
#
# CIF file created by Zeo++
# Zeo++ is an open source package to
# analyze microporous materials
#
#*******************************************

_cell_length_a		33.2502   
_cell_length_b		33.5489   
_cell_length_c		7   
_cell_angle_alpha		90   
_cell_angle_beta		90   
_cell_angle_gamma		119.611   

_symmetry_space_group_name_H-M		'P1'
_symmetry_Int_Tables_number		1
_symmetry_cell_setting		Monoclinic

loop_
_symmetry_equiv_pos_as_xyz
'+x,+y,+z'

loop_
_atom_site_label
_atom_site_type_symbol
_atom_site_fract_x
_atom_site_fract_y
_atom_site_fract_z
1	C	0.37992	0.676368	0.999995
2	O	0.420768	0.683502	0.999991
3	C	0.343112	0.628695	0.999998
4	C	0.350385	0.593555	0
5	N	0.396109	0.601772	0
6	C	0.295873	0.620233	3e-06
7	O	0.262788	0.579143	5e-06
8	C	0.284415	0.656897	6e-06
9	C	0.240947	0.648049	5e-06
10	N	0.205132	0.601298	0
11	C	0.323002	0.704189	4e-06
12	O	0.313889	0.735895	7e-06
13	C	0.370996	0.714776	0.999999
14	C	0.405008	0.757921	0.999998
15	N	0.39804	0.796219	0
16	H	0.322201	0.559346	1e-06
17	H	0.231699	0.67431	8e-06
18	H	0.439516	0.764081	0.999997
19	C	0.62008	0.323632	0.999995
20	O	0.579232	0.316498	0.999991
21	C	0.656888	0.371305	0.999998
22	C	0.649615	0.406445	0
23	N	0.603891	0.398228	0
24	C	0.704127	0.379767	3e-06
25	O	0.737212	0.420857	5e-06
26	C	0.715585	0.343103	6e-06
27	C	0.759053	0.351951	5e-06
28	N	0.794868	0.398702	0
29	C	0.676998	0.295811	4e-06
30	O	0.686111	0.264105	7e-06
31	C	0.629004	0.285224	0.999999
32	C	0.594992	0.242079	0.999998
33	N	0.60196	0.203781	0
34	H	0.677799	0.440654	1e-06
35	H	0.768301	0.32569	8e-06
36	H	0.560484	0.235919	0.999997
37	C	0.424108	0.574344	0
38	C	0.420874	0.548768	0.158154
39	C	0.457005	0.574618	0.29254
40	C	0.463556	0.557946	0.471398
41	C	0.474759	0.581464	0.637046
42	C	0.477121	0.552986	0.796064
43	C	0.465604	0.509278	0.695606
44	C	0.457984	0.512418	0.508413
45	C	0.448751	0.47581	0.371228
46	C	0.415713	0.430286	0.405086
47	N	0.406093	0.395802	0.279798
48	C	0.431142	0.408148	0.115745
49	C	0.421122	0.37165	0.976683
50	C	0.377507	0.338863	0.936186
51	C	0.377489	0.307404	0.785138
52	C	0.428059	0.327107	0.746935
53	C	0.45307	0.363743	0.859561
54	C	0.50243	0.389003	0.867637
55	C	0.530161	0.404251	0.706958
56	S	0.587867	0.433747	0.763457
57	C	0.575892	0.425656	0
58	C	0.529415	0.401274	0.039068
59	C	0.463821	0.453753	0.081139
60	N	0.473373	0.488153	0.206748
61	C	0.485444	0.618918	0.228753
62	S	0.468932	0.628691	0.009594
63	H	0.394262	0.513367	0.176601
64	H	0.48053	0.615847	0.656304
65	H	0.45174	0.547276	0.907375
66	H	0.5118	0.568847	0.858328
67	H	0.46539	0.480494	0.765845
68	H	0.395311	0.41993	0.535154
69	H	0.346534	0.335713	0.000815
70	H	0.359152	0.308434	0.657165
71	H	0.36207	0.272169	0.83762
72	H	0.441867	0.312373	0.647172
73	H	0.519667	0.400007	0.558664
74	H	0.515356	0.392533	0.182329
75	H	0.483472	0.464496	0.949207
76	H	0.51553	0.646139	0.29839
77	C	0.425389	0.851075	0
78	C	0.45112	0.873258	0.158154
79	C	0.424857	0.883281	0.29254
80	C	0.441563	0.906291	0.471398
81	C	0.417837	0.894016	0.637046
82	C	0.446442	0.924604	0.796064
83	C	0.49046	0.9566	0.695606
84	C	0.487364	0.945962	0.508413
85	C	0.52423	0.973169	0.371228
86	C	0.570242	0.985721	0.405086
87	N	0.604976	0.010438	0.279798
88	C	0.592372	0.022918	0.115745
89	C	0.629134	0.049239	0.976683
90	C	0.662427	0.038711	0.936186
91	C	0.694045	0.069906	0.785138
92	C	0.673848	0.100283	0.746935
93	C	0.636831	0.088625	0.859561
94	C	0.611058	0.112293	0.867637
95	C	0.595516	0.124541	0.706958
96	S	0.56542	0.152246	0.763457
97	C	0.573646	0.148452	0
98	C	0.598514	0.12676	0.039068
99	C	0.546281	0.009932	0.081139
100	N	0.511632	0.985231	0.206748
101	C	0.38011	0.867403	0.228753
102	S	0.370417	0.841405	0.009594
103	H	0.486908	0.882111	0.176601
104	H	0.383235	0.865599	0.656304
105	H	0.452379	0.905212	0.907375
106	H	0.430229	0.943103	0.858328
107	H	0.519392	0.984948	0.765845
108	H	0.58081	0.975854	0.535154
109	H	0.665835	0.011259	0.000815
110	H	0.693153	0.050781	0.657165
111	H	0.72958	0.089645	0.83762
112	H	0.688549	0.128534	0.647172
113	H	0.599864	0.118392	0.558664
114	H	0.60741	0.121552	0.182329
115	H	0.53533	0.018674	0.949207
116	H	0.352517	0.870098	0.29839
117	C	0.149784	0.57387	0
118	C	0.127288	0.577263	0.158154
119	C	0.117419	0.54139	0.29254
120	C	0.094162	0.535053	0.471398
121	C	0.106685	0.52381	0.637046
122	C	0.075718	0.5217	0.796064
123	C	0.043217	0.533411	0.695606
124	C	0.053933	0.54091	0.508413
125	C	0.026301	0.550311	0.371228
126	C	0.013326	0.583283	0.405086
127	N	0.988212	0.593049	0.279798
128	C	0.975768	0.568224	0.115745
129	C	0.949026	0.5784	0.976683
130	C	0.959347	0.621715	0.936186
131	C	0.927747	0.621979	0.785138
132	C	0.897374	0.571899	0.746935
133	C	0.90938	0.546921	0.859561
134	C	0.885793	0.497993	0.867637
135	C	0.873605	0.470497	0.706958
136	S	0.845994	0.413296	0.763457
137	C	0.849743	0.425182	0
138	C	0.871352	0.471256	0.039068
139	C	0.989179	0.535604	0.081139
140	N	0.014275	0.525906	0.206748
141	C	0.133727	0.512968	0.228753
142	S	0.159933	0.529194	0.009594
143	H	0.118111	0.603812	0.176601
144	H	0.135516	0.517843	0.656304
145	H	0.095163	0.546802	0.907375
146	H	0.057252	0.487339	0.858328
147	H	0.014499	0.533847	0.765845
148	H	0.02316	0.603505	0.535154
149	H	0.986912	0.652318	0.000815
150	H	0.946976	0.640074	0.657165
151	H	0.907631	0.637476	0.83762
152	H	0.868866	0.558382	0.647172
153	H	0.87975	0.48089	0.558664
154	H	0.876516	0.485204	0.182329
155	H	0.980478	0.51612	0.949207
156	H	0.131234	0.483053	0.29839
