data_C120H66N6O6S6_2023-05-11_09:34:47
#******************************************
#
# CIF file created by Zeo++
# Zeo++ is an open source package to
# analyze microporous materials
#
#*******************************************

_cell_length_a		43.398   
_cell_length_b		43.6965   
_cell_length_c		7   
_cell_angle_alpha		90   
_cell_angle_beta		90   
_cell_angle_gamma		119.702   

_symmetry_space_group_name_H-M		'P1'
_symmetry_Int_Tables_number		1
_symmetry_cell_setting		Monoclinic

loop_
_symmetry_equiv_pos_as_xyz
'+x,+y,+z'

loop_
_atom_site_label
_atom_site_type_symbol
_atom_site_fract_x
_atom_site_fract_y
_atom_site_fract_z
1	C	0.369041	0.674122	0.999995
2	O	0.400347	0.679604	0.999991
3	C	0.340772	0.637487	0.999998
4	C	0.346295	0.610483	0
5	N	0.381339	0.616798	0
6	C	0.304567	0.630984	3e-06
7	O	0.279161	0.599408	5e-06
8	C	0.29584	0.659159	6e-06
9	C	0.262524	0.65236	5e-06
10	N	0.235018	0.616434	0
11	C	0.325471	0.695501	4e-06
12	O	0.318533	0.719866	7e-06
13	C	0.362257	0.703637	0.999999
14	C	0.388377	0.736791	0.999998
15	N	0.383092	0.766222	0
16	H	0.324653	0.584195	1e-06
17	H	0.255475	0.67254	8e-06
18	H	0.414824	0.741526	0.999997
19	C	0.630959	0.325878	0.999995
20	O	0.599653	0.320396	0.999991
21	C	0.659228	0.362513	0.999998
22	C	0.653705	0.389517	0
23	N	0.618661	0.383202	0
24	C	0.695433	0.369016	3e-06
25	O	0.720839	0.400592	5e-06
26	C	0.70416	0.340841	6e-06
27	C	0.737476	0.34764	5e-06
28	N	0.764982	0.383566	0
29	C	0.674529	0.304499	4e-06
30	O	0.681467	0.280134	7e-06
31	C	0.637743	0.296363	0.999999
32	C	0.611623	0.263209	0.999998
33	N	0.616908	0.233778	0
34	H	0.675347	0.415805	1e-06
35	H	0.744525	0.32746	8e-06
36	H	0.585176	0.258474	0.999997
37	C	0.402753	0.595721	0
38	C	0.371067	0.564713	0.003569
39	S	0.37752	0.529103	0.001597
40	C	0.422827	0.555536	0.995413
41	C	0.445503	0.539379	0.989153
42	C	0.448523	0.523115	0.154939
43	C	0.469986	0.507585	0.160039
44	C	0.472568	0.491592	0.32714
45	C	0.493881	0.476012	0.333849
46	C	0.513494	0.475642	0.174009
47	C	0.535478	0.459849	0.176383
48	C	0.538346	0.442553	0.350802
49	C	0.565265	0.457844	0.47628
50	C	0.560027	0.432705	0.635189
51	C	0.525705	0.400893	0.579758
52	C	0.513803	0.407228	0.416159
53	C	0.554583	0.4607	0.011086
54	C	0.57723	0.44451	0.004709
55	C	0.567358	0.409184	0.004233
56	C	0.597247	0.404279	0
57	C	0.62895	0.435269	0.996
58	S	0.62254	0.470907	0.997944
59	C	0.551571	0.476976	0.845328
60	C	0.530119	0.492516	0.840263
61	C	0.527543	0.508514	0.67317
62	C	0.50623	0.524093	0.666463
63	C	0.486611	0.524457	0.82629
64	C	0.464617	0.540237	0.823883
65	C	0.461739	0.557518	0.649429
66	C	0.434867	0.542172	0.523701
67	C	0.440088	0.5673	0.364747
68	C	0.474348	0.599161	0.420425
69	C	0.486232	0.592865	0.584208
70	C	0.489188	0.50807	0.996141
71	C	0.510918	0.492031	0.004167
72	C	0.432666	0.590854	0.996148
73	H	0.34452	0.560988	0.006924
74	H	0.433916	0.522735	0.282319
75	H	0.45802	0.491019	0.454965
76	H	0.494968	0.464042	0.468211
77	H	0.587694	0.484165	0.465415
78	H	0.55775	0.443157	0.773196
79	H	0.58167	0.426698	0.63985
80	H	0.512801	0.376671	0.660372
81	H	0.489765	0.389192	0.341817
82	H	0.539977	0.388226	0.008345
83	H	0.655484	0.438966	0.992354
84	H	0.566172	0.477352	0.71793
85	H	0.542091	0.509088	0.545348
86	H	0.505147	0.536068	0.532108
87	H	0.412482	0.515824	0.534405
88	H	0.418399	0.573235	0.359824
89	H	0.442443	0.556877	0.226809
90	H	0.487227	0.623389	0.339851
91	H	0.510228	0.610944	0.65874
92	H	0.460042	0.611831	0.992449
93	C	0.404122	0.808377	0
94	C	0.43544	0.807822	0.003569
95	S	0.471149	0.84961	0.001597
96	C	0.444342	0.868198	0.995413
97	C	0.460426	0.906712	0.989153
98	C	0.476734	0.925869	0.154939
99	C	0.492196	0.962559	0.160039
100	C	0.508236	0.981012	0.32714
101	C	0.523748	0.017603	0.333849
102	C	0.524002	0.037392	0.174009
103	C	0.539724	0.074858	0.176383
104	C	0.557071	0.094891	0.350802
105	C	0.541558	0.106346	0.47628
106	C	0.566827	0.126149	0.635189
107	C	0.598967	0.123784	0.579758
108	C	0.592679	0.105701	0.416159
109	C	0.538756	0.092931	0.011086
110	C	0.554873	0.131449	0.004709
111	C	0.590395	0.156788	0.004233
112	C	0.595139	0.191259	0
113	C	0.563839	0.191848	0.996
114	S	0.528102	0.150077	0.997944
115	C	0.522435	0.073771	0.845328
116	C	0.506963	0.037081	0.840263
117	C	0.490918	0.018628	0.67317
118	C	0.475407	0.982038	0.666463
119	C	0.47516	0.96225	0.82629
120	C	0.45945	0.924786	0.823883
121	C	0.442119	0.904759	0.649429
122	C	0.457685	0.893404	0.523701
123	C	0.43243	0.873597	0.364747
124	C	0.400239	0.875851	0.420425
125	C	0.406488	0.893877	0.584208
126	C	0.491594	0.98109	0.996141
127	C	0.507565	0.018551	0.004167
128	C	0.408829	0.842835	0.996148
129	H	0.439339	0.785239	0.006924
130	H	0.477204	0.911783	0.282319
131	H	0.508898	0.967176	0.454965
132	H	0.535758	0.030577	0.468211
133	H	0.515001	0.102393	0.465415
134	H	0.556348	0.113505	0.773196
135	H	0.572727	0.15355	0.63985
136	H	0.62336	0.135083	0.660372
137	H	0.610929	0.099827	0.341817
138	H	0.611598	0.150507	0.008345
139	H	0.559969	0.214447	0.992354
140	H	0.52197	0.087855	0.71793
141	H	0.490255	0.032463	0.545348
142	H	0.463392	0.969063	0.532108
143	H	0.484271	0.897428	0.534405
144	H	0.426601	0.846221	0.359824
145	H	0.442879	0.886289	0.226809
146	H	0.37584	0.864521	0.339851
147	H	0.388195	0.899667	0.65874
148	H	0.387607	0.849092	0.992449
149	C	0.192574	0.595356	0
150	C	0.192943	0.626918	0.003569
151	S	0.15078	0.620741	0.001597
152	C	0.13228	0.575719	0.995413
153	C	0.09352	0.553363	0.989153
154	C	0.074191	0.55047	0.154939
155	C	0.037267	0.52931	0.160039
156	C	0.018645	0.52685	0.32714
157	C	0.98182	0.505839	0.333849
158	C	0.961953	0.48642	0.174009
159	C	0.924247	0.464746	0.176383
160	C	0.904033	0.46201	0.350802
161	C	0.892626	0.435263	0.47628
162	C	0.872595	0.4406	0.635189
163	C	0.874777	0.474777	0.579758
164	C	0.892967	0.486524	0.416159
165	C	0.90611	0.445823	0.011086
166	C	0.867346	0.423495	0.004709
167	C	0.841696	0.433482	0.004233
168	C	0.807063	0.403915	0
169	C	0.80666	0.372337	0.996
170	S	0.848807	0.37847	0.997944
171	C	0.925443	0.448708	0.845328
172	C	0.962367	0.469857	0.840263
173	C	0.980988	0.472312	0.67317
174	C	0.017812	0.493322	0.666463
175	C	0.037679	0.512747	0.82629
176	C	0.075382	0.534431	0.823883
177	C	0.095591	0.537177	0.649429
178	C	0.106897	0.563878	0.523701
179	C	0.126931	0.558557	0.364747
180	C	0.124862	0.524441	0.420425
181	C	0.106728	0.512712	0.584208
182	C	0.018667	0.510293	0.996141
183	C	0.980965	0.488872	0.004167
184	C	0.157954	0.565765	0.996148
185	H	0.21559	0.653227	0.006924
186	H	0.088329	0.564936	0.282319
187	H	0.032531	0.541258	0.454965
188	H	0.968723	0.504834	0.468211
189	H	0.896754	0.412895	0.465415
190	H	0.885351	0.442792	0.773196
191	H	0.845052	0.419205	0.63985
192	H	0.863287	0.487699	0.660372
193	H	0.898755	0.510435	0.341817
194	H	0.847875	0.460721	0.008345
195	H	0.783996	0.346041	0.992354
196	H	0.911307	0.434248	0.71793
197	H	0.967103	0.457902	0.545348
198	H	0.03091	0.494323	0.532108
199	H	0.102697	0.586202	0.534405
200	H	0.154449	0.579998	0.359824
201	H	0.114127	0.556288	0.226809
202	H	0.136382	0.511544	0.339851
203	H	0.101025	0.488842	0.65874
204	H	0.1518	0.538531	0.992449
