data_C72H36N12O6S6_2023-05-10_22:12:07
#******************************************
#
# CIF file created by Zeo++
# Zeo++ is an open source package to
# analyze microporous materials
#
#*******************************************

_cell_length_a		42.5346   
_cell_length_b		42.8331   
_cell_length_c		7   
_cell_angle_alpha		90   
_cell_angle_beta		90   
_cell_angle_gamma		119.696   

_symmetry_space_group_name_H-M		'P1'
_symmetry_Int_Tables_number		1
_symmetry_cell_setting		Monoclinic

loop_
_symmetry_equiv_pos_as_xyz
'+x,+y,+z'

loop_
_atom_site_label
_atom_site_type_symbol
_atom_site_fract_x
_atom_site_fract_y
_atom_site_fract_z
1	C	0.369764	0.674272	0.999995
2	O	0.401706	0.679864	0.999991
3	C	0.340927	0.6369	0.999998
4	C	0.346566	0.609354	0
5	N	0.38232	0.615796	0
6	C	0.303988	0.630267	3e-06
7	O	0.27807	0.598056	5e-06
8	C	0.29508	0.659008	6e-06
9	C	0.261088	0.652072	5e-06
10	N	0.233028	0.615424	0
11	C	0.325308	0.696081	4e-06
12	O	0.318226	0.720935	7e-06
13	C	0.36284	0.70438	0.999999
14	C	0.389485	0.738201	0.999998
15	N	0.38409	0.768223	0
16	H	0.324487	0.582538	1e-06
17	H	0.253894	0.672658	8e-06
18	H	0.416469	0.74303	0.999997
19	C	0.630236	0.325728	0.999995
20	O	0.598294	0.320136	0.999991
21	C	0.659073	0.3631	0.999998
22	C	0.653434	0.390646	0
23	N	0.61768	0.384204	0
24	C	0.696012	0.369733	3e-06
25	O	0.72193	0.401944	5e-06
26	C	0.70492	0.340992	6e-06
27	C	0.738912	0.347928	5e-06
28	N	0.766972	0.384576	0
29	C	0.674692	0.303919	4e-06
30	O	0.681774	0.279065	7e-06
31	C	0.63716	0.29562	0.999999
32	C	0.610515	0.261799	0.999998
33	N	0.61591	0.231777	0
34	H	0.675513	0.417462	1e-06
35	H	0.746106	0.327342	8e-06
36	H	0.583531	0.25697	0.999997
37	C	0.404171	0.594295	0
38	C	0.401369	0.597059	0.188853
39	C	0.419436	0.57928	0.289976
40	C	0.432921	0.566002	0.126412
41	C	0.452361	0.54687	0.127161
42	N	0.463077	0.53632	0.975549
43	C	0.481275	0.518414	0.027949
44	C	0.496264	0.503662	0.903658
45	C	0.514013	0.486199	0.975962
46	C	0.517267	0.483003	0.171665
47	C	0.502281	0.497751	0.296014
48	C	0.484529	0.515217	0.223751
49	S	0.46402	0.5354	0.342259
50	N	0.53547	0.465094	0.223974
51	C	0.546234	0.454499	0.072665
52	C	0.56568	0.435368	0.083829
53	C	0.577188	0.424044	0.933618
54	C	0.595829	0.405705	0
55	C	0.596157	0.405385	0.191008
56	C	0.576948	0.424285	0.26531
57	S	0.534518	0.466021	0.857713
58	C	0.423477	0.575292	0.961199
59	H	0.388258	0.609967	0.259245
60	H	0.399943	0.557013	0.378571
61	H	0.441813	0.598715	0.378543
62	H	0.493841	0.506041	0.750531
63	H	0.504706	0.495369	0.449121
64	H	0.5737	0.427473	0.783708
65	H	0.608218	0.39352	0.279654
66	H	0.595224	0.447727	0.350924
67	H	0.553383	0.406048	0.350935
68	H	0.429251	0.569604	0.819033
69	C	0.405542	0.811225	0
70	C	0.402784	0.805704	0.188853
71	C	0.420523	0.841261	0.289976
72	C	0.433771	0.867807	0.126412
73	C	0.45286	0.906068	0.127161
74	N	0.463385	0.927162	0.975549
75	C	0.481251	0.962975	0.027949
76	C	0.49597	0.992476	0.903658
77	C	0.513393	0.027404	0.975962
78	C	0.516582	0.033802	0.171665
79	C	0.501867	0.004308	0.296014
80	C	0.484441	0.969375	0.223751
81	S	0.464303	0.92901	0.342259
82	N	0.53445	0.069623	0.223974
83	C	0.545021	0.090809	0.072665
84	C	0.564109	0.129074	0.083829
85	C	0.575408	0.151723	0.933618
86	C	0.593705	0.188404	0
87	C	0.594024	0.189047	0.191008
88	C	0.575167	0.151245	0.26531
89	S	0.533525	0.067759	0.857713
90	C	0.424502	0.849225	0.961199
91	H	0.389905	0.779895	0.259245
92	H	0.442997	0.844094	0.378571
93	H	0.400874	0.844098	0.378543
94	H	0.493596	0.987713	0.750531
95	H	0.504244	0.009076	0.449121
96	H	0.571986	0.144862	0.783708
97	H	0.605862	0.212779	0.279654
98	H	0.55152	0.146039	0.350924
99	H	0.59362	0.146042	0.350935
100	H	0.430177	0.860594	0.819033
101	C	0.189725	0.593923	0
102	C	0.195285	0.59668	0.188853
103	C	0.159479	0.578902	0.289976
104	C	0.132747	0.565634	0.126412
105	C	0.094217	0.546505	0.127161
106	N	0.072976	0.535961	0.975549
107	C	0.036913	0.518054	0.027949
108	C	0.007205	0.503305	0.903658
109	C	0.972032	0.48584	0.975962
110	C	0.965589	0.482638	0.171665
111	C	0.99529	0.497384	0.296014
112	C	0.030468	0.514851	0.223751
113	S	0.071115	0.535032	0.342259
114	N	0.929518	0.464726	0.223974
115	C	0.908183	0.454134	0.072665
116	C	0.86965	0.435001	0.083829
117	C	0.846842	0.423676	0.933618
118	C	0.809904	0.405334	0
119	C	0.809257	0.405011	0.191008
120	C	0.847323	0.423913	0.26531
121	S	0.931394	0.465663	0.857713
122	C	0.151459	0.574926	0.961199
123	H	0.221275	0.609581	0.259245
124	H	0.156497	0.598336	0.378571
125	H	0.156751	0.55663	0.378543
126	H	0.012001	0.505689	0.750531
127	H	0.990488	0.494998	0.449121
128	H	0.853752	0.427108	0.783708
129	H	0.785358	0.393143	0.279654
130	H	0.852694	0.405676	0.350924
131	H	0.852435	0.447353	0.350935
132	H	0.140011	0.569245	0.819033
