data_C48H24N6O6S6_2023-05-29_11:27:08
#******************************************
#
# CIF file created by Zeo++
# Zeo++ is an open source package to
# analyze microporous materials
#
#*******************************************

_cell_length_a		29.9377   
_cell_length_b		30.2365   
_cell_length_c		7   
_cell_angle_alpha		90   
_cell_angle_beta		90   
_cell_angle_gamma		119.569   

_symmetry_space_group_name_H-M		'P1'
_symmetry_Int_Tables_number		1
_symmetry_cell_setting		Monoclinic

loop_
_symmetry_equiv_pos_as_xyz
'+x,+y,+z'

loop_
_atom_site_label
_atom_site_type_symbol
_atom_site_fract_x
_atom_site_fract_y
_atom_site_fract_z
1	C	0.385065	0.677427	0.999995
2	O	0.430426	0.685339	0.999991
3	C	0.34423	0.624553	0.999998
4	C	0.352342	0.58558	0
5	N	0.403117	0.594694	0
6	C	0.291773	0.615168	3e-06
7	O	0.255066	0.569596	5e-06
8	C	0.279012	0.655831	6e-06
9	C	0.230743	0.646018	5e-06
10	N	0.19101	0.594168	0
11	C	0.321823	0.708282	4e-06
12	O	0.311672	0.743446	7e-06
13	C	0.375117	0.720024	0.999999
14	C	0.412851	0.767875	0.999998
15	N	0.405075	0.810351	0
16	H	0.321072	0.54764	1e-06
17	H	0.220446	0.675144	8e-06
18	H	0.451171	0.774707	0.999997
19	C	0.614935	0.322573	0.999995
20	O	0.569574	0.314661	0.999991
21	C	0.65577	0.375447	0.999998
22	C	0.647658	0.41442	0
23	N	0.596883	0.405306	0
24	C	0.708227	0.384832	3e-06
25	O	0.744934	0.430404	5e-06
26	C	0.720988	0.344169	6e-06
27	C	0.769257	0.353982	5e-06
28	N	0.80899	0.405832	0
29	C	0.678177	0.291718	4e-06
30	O	0.688328	0.256554	7e-06
31	C	0.624883	0.279976	0.999999
32	C	0.587149	0.232125	0.999998
33	N	0.594925	0.189649	0
34	H	0.678928	0.45236	1e-06
35	H	0.779554	0.324856	8e-06
36	H	0.548829	0.225293	0.999997
37	C	0.56576	0.435726	0
38	C	0.519372	0.426211	0.927359
39	C	0.493086	0.441633	0.058136
40	C	0.520693	0.463068	0.224109
41	C	0.508175	0.482516	0.388452
42	C	0.4869	0.512587	0.389007
43	C	0.476457	0.534099	0.225771
44	C	0.506129	0.557586	0.065832
45	C	0.481506	0.574663	0.934023
46	C	0.43424	0.564274	0
47	S	0.419312	0.535019	0.215142
48	S	0.577931	0.462239	0.220061
49	H	0.504539	0.409007	0.789399
50	H	0.455418	0.437174	0.03121
51	H	0.51602	0.471179	0.526532
52	H	0.477305	0.522182	0.527319
53	H	0.544107	0.562354	0.04388
54	H	0.498062	0.59358	0.800057
55	C	0.56353	0.128285	0
56	C	0.573501	0.091986	0.927359
57	C	0.558219	0.050783	0.058136
58	C	0.536425	0.056751	0.224109
59	C	0.516976	0.02513	0.388452
60	C	0.486919	0.974345	0.389007
61	C	0.465377	0.942724	0.225771
62	C	0.4415	0.948692	0.065832
63	C	0.42454	0.907489	0.934023
64	C	0.435397	0.87119	0
65	S	0.464946	0.885474	0.215142
66	S	0.536762	0.114001	0.220061
67	H	0.59093	0.094418	0.789399
68	H	0.56303	0.018068	0.03121
69	H	0.528309	0.044103	0.526532
70	H	0.477353	0.955373	0.527319
71	H	0.436377	0.981407	0.04388
72	H	0.405373	0.905058	0.800057
73	C	0.869912	0.435201	0
74	C	0.906329	0.481015	0.927359
75	C	0.947896	0.506795	0.058136
76	C	0.942084	0.479394	0.224109
77	C	0.974051	0.491566	0.388452
78	C	0.025383	0.51228	0.389007
79	C	0.057368	0.522389	0.225771
80	C	0.051574	0.492934	0.065832
81	C	0.093155	0.51706	0.934023
82	C	0.129565	0.563748	0
83	S	0.114944	0.578719	0.215142
84	S	0.884508	0.422972	0.220061
85	H	0.903733	0.495788	0.789399
86	H	0.980754	0.54397	0.03121
87	H	0.954874	0.483931	0.526532
88	H	0.044545	0.521657	0.527319
89	H	0.018718	0.455451	0.04388
90	H	0.095766	0.500574	0.800057
