data_C78H48N6O6_2023-05-30_05:37:21
#******************************************
#
# CIF file created by Zeo++
# Zeo++ is an open source package to
# analyze microporous materials
#
#*******************************************

_cell_length_a		39.4167   
_cell_length_b		39.7153   
_cell_length_c		7   
_cell_angle_alpha		90   
_cell_angle_beta		90   
_cell_angle_gamma		119.672   

_symmetry_space_group_name_H-M		'P1'
_symmetry_Int_Tables_number		1
_symmetry_cell_setting		Monoclinic

loop_
_symmetry_equiv_pos_as_xyz
'+x,+y,+z'

loop_
_atom_site_label
_atom_site_type_symbol
_atom_site_fract_x
_atom_site_fract_y
_atom_site_fract_z
1	C	0.372642	0.674867	0.999995
2	O	0.407107	0.680897	0.999991
3	C	0.341543	0.634571	0.999998
4	C	0.347642	0.60487	0
5	N	0.386221	0.611815	0
6	C	0.301686	0.627419	3e-06
7	O	0.273734	0.592688	5e-06
8	C	0.292058	0.658409	6e-06
9	C	0.255381	0.65093	5e-06
10	N	0.225121	0.611415	0
11	C	0.324657	0.698382	4e-06
12	O	0.317003	0.725181	7e-06
13	C	0.365154	0.707331	0.999999
14	C	0.393889	0.743798	0.999998
15	N	0.388051	0.77617	0
16	H	0.323832	0.575955	1e-06
17	H	0.247607	0.673127	8e-06
18	H	0.423005	0.749005	0.999997
19	C	0.627358	0.325133	0.999995
20	O	0.592893	0.319103	0.999991
21	C	0.658457	0.365429	0.999998
22	C	0.652358	0.39513	0
23	N	0.613779	0.388185	0
24	C	0.698314	0.372581	3e-06
25	O	0.726266	0.407312	5e-06
26	C	0.707942	0.341591	6e-06
27	C	0.744619	0.34907	5e-06
28	N	0.774879	0.388585	0
29	C	0.675343	0.301618	4e-06
30	O	0.682997	0.274819	7e-06
31	C	0.634846	0.292669	0.999999
32	C	0.606111	0.256202	0.999998
33	N	0.611949	0.22383	0
34	H	0.676168	0.424045	1e-06
35	H	0.752393	0.326873	8e-06
36	H	0.576995	0.250995	0.999997
37	C	0.409812	0.588632	0
38	C	0.422281	0.563159	0.974139
39	C	0.450471	0.568521	0.121339
40	C	0.471503	0.546923	0.143851
41	C	0.475195	0.533428	0.322924
42	C	0.495134	0.512709	0.342666
43	C	0.511851	0.505007	0.183588
44	C	0.532014	0.484223	0.201132
45	C	0.548687	0.476561	0.041769
46	C	0.569574	0.454749	0.060679
47	C	0.596106	0.461021	0.197504
48	C	0.612064	0.433858	0.172659
49	C	0.590188	0.411368	0
50	C	0.566099	0.423708	0.938125
51	C	0.544858	0.48992	0.862639
52	C	0.52492	0.510641	0.842924
53	C	0.508257	0.518396	0.002054
54	C	0.488093	0.539178	0.984483
55	C	0.454876	0.597586	0.236594
56	C	0.429271	0.613485	0.170622
57	H	0.412953	0.541525	0.863095
58	H	0.462288	0.538608	0.44894
59	H	0.497412	0.502544	0.483826
60	H	0.534454	0.473612	0.340917
61	H	0.605465	0.482598	0.30903
62	H	0.605658	0.415231	0.298148
63	H	0.643594	0.450048	0.147552
64	H	0.546628	0.412505	0.817248
65	H	0.557642	0.484624	0.736459
66	H	0.522566	0.520732	0.701688
67	H	0.485577	0.549704	0.844578
68	H	0.474185	0.608748	0.35824
69	H	0.408184	0.609962	0.2815
70	H	0.446887	0.644104	0.132067
71	C	0.411178	0.822536	0
72	C	0.436678	0.860176	0.974139
73	C	0.431106	0.882735	0.121339
74	C	0.452658	0.924997	0.143851
75	C	0.466186	0.942054	0.322924
76	C	0.486862	0.982361	0.342666
77	C	0.494487	0.00655	0.183588
78	C	0.515226	0.047142	0.201132
79	C	0.522811	0.071247	0.041769
80	C	0.544578	0.113577	0.060679
81	C	0.538105	0.133592	0.197504
82	C	0.565278	0.176362	0.172659
83	C	0.588009	0.177064	0
84	C	0.575775	0.140976	0.938125
85	C	0.50942	0.054189	0.862639
86	C	0.488743	0.01388	0.842924
87	C	0.481064	0.989693	0.002054
88	C	0.460327	0.949102	0.984483
89	C	0.401888	0.858219	0.236594
90	C	0.38609	0.817096	0.170622
91	H	0.458465	0.87244	0.863095
92	H	0.461069	0.92414	0.44894
93	H	0.497056	0.994713	0.483826
94	H	0.525867	0.060097	0.340917
95	H	0.516374	0.121416	0.30903
96	H	0.584027	0.188529	0.298148
97	H	0.548812	0.19147	0.147552
98	H	0.587154	0.132843	0.817248
99	H	0.514654	0.072095	0.736459
100	H	0.478624	0.001528	0.701688
101	H	0.449772	0.936156	0.844578
102	H	0.390552	0.866233	0.35824
103	H	0.389768	0.799736	0.2815
104	H	0.355224	0.804106	0.132067
105	C	0.178404	0.588231	0
106	C	0.140435	0.576065	0.974139
107	C	0.117817	0.548143	0.121339
108	C	0.075232	0.52748	0.143851
109	C	0.058013	0.523917	0.322924
110	C	0.017397	0.504329	0.342666
111	C	0.993055	0.487843	0.183588
112	C	0.952153	0.468034	0.201132
113	C	0.927895	0.451592	0.041769
114	C	0.885241	0.431073	0.060679
115	C	0.865183	0.404786	0.197504
116	C	0.822052	0.389179	0.172659
117	C	0.821197	0.410967	0
118	C	0.85752	0.434716	0.938125
119	C	0.945115	0.455291	0.862639
120	C	0.985731	0.474878	0.842924
121	C	0.010072	0.49131	0.002054
122	C	0.050974	0.51112	0.984483
123	C	0.14263	0.543594	0.236594
124	C	0.184032	0.568817	0.170622
125	H	0.127975	0.585435	0.863095
126	H	0.076037	0.536651	0.44894
127	H	0.004926	0.502143	0.483826
128	H	0.939073	0.465691	0.340917
129	H	0.877554	0.395385	0.30903
130	H	0.809708	0.395639	0.298148
131	H	0.806988	0.357882	0.147552
132	H	0.865612	0.454051	0.817248
133	H	0.927098	0.44268	0.736459
134	H	0.998203	0.477139	0.701688
135	H	0.064044	0.513539	0.844578
136	H	0.134656	0.524418	0.35824
137	H	0.201442	0.589701	0.2815
138	H	0.197282	0.551189	0.132067
