data_C72H36N12O6S6_2023-05-13_12:10:47
#******************************************
#
# CIF file created by Zeo++
# Zeo++ is an open source package to
# analyze microporous materials
#
#*******************************************

_cell_length_a		40.538   
_cell_length_b		40.8366   
_cell_length_c		7   
_cell_angle_alpha		90   
_cell_angle_beta		90   
_cell_angle_gamma		119.681   

_symmetry_space_group_name_H-M		'P1'
_symmetry_Int_Tables_number		1
_symmetry_cell_setting		Monoclinic

loop_
_symmetry_equiv_pos_as_xyz
'+x,+y,+z'

loop_
_atom_site_label
_atom_site_type_symbol
_atom_site_fract_x
_atom_site_fract_y
_atom_site_fract_z
1	C	0.371556	0.674642	0.999995
2	O	0.405069	0.680507	0.999991
3	C	0.34131	0.63545	0.999998
4	C	0.347235	0.606561	0
5	N	0.384749	0.613317	0
6	C	0.302554	0.628493	3e-06
7	O	0.275369	0.594713	5e-06
8	C	0.293199	0.658635	6e-06
9	C	0.257535	0.651361	5e-06
10	N	0.228104	0.612927	0
11	C	0.324903	0.697514	4e-06
12	O	0.317465	0.72358	7e-06
13	C	0.364281	0.706218	0.999999
14	C	0.392228	0.741687	0.999998
15	N	0.386557	0.773172	0
16	H	0.324078	0.578438	1e-06
17	H	0.249979	0.67295	8e-06
18	H	0.420539	0.746752	0.999997
19	C	0.628444	0.325358	0.999995
20	O	0.594931	0.319493	0.999991
21	C	0.65869	0.36455	0.999998
22	C	0.652765	0.393439	0
23	N	0.615251	0.386683	0
24	C	0.697446	0.371507	3e-06
25	O	0.724631	0.405287	5e-06
26	C	0.706801	0.341365	6e-06
27	C	0.742465	0.348639	5e-06
28	N	0.771896	0.387073	0
29	C	0.675097	0.302486	4e-06
30	O	0.682535	0.27642	7e-06
31	C	0.635719	0.293782	0.999999
32	C	0.607772	0.258313	0.999998
33	N	0.613443	0.226828	0
34	H	0.675922	0.421562	1e-06
35	H	0.750021	0.32705	8e-06
36	H	0.579461	0.253248	0.999997
37	C	0.592318	0.409232	0
38	C	0.586532	0.414918	0.186682
39	C	0.566099	0.435007	0.200317
40	C	0.556928	0.444027	0.023905
41	C	0.536086	0.464521	0.980243
42	C	0.529013	0.471475	0.793609
43	C	0.50942	0.49074	0.764916
44	N	0.496494	0.503449	0.907443
45	C	0.502837	0.49721	0.090724
46	C	0.487716	0.512078	0.241947
47	C	0.491605	0.508255	0.437485
48	C	0.476503	0.523102	0.567746
49	C	0.457739	0.54155	0.501254
50	C	0.454567	0.54467	0.305468
51	C	0.435076	0.563833	0.223207
52	C	0.417401	0.581208	0.314847
53	C	0.401545	0.596799	0.18574
54	C	0.407682	0.590768	0
55	S	0.431789	0.567067	0.978431
56	N	0.469246	0.530238	0.179122
57	C	0.522534	0.477844	0.129174
58	S	0.573898	0.427345	0.843779
59	H	0.596191	0.405419	0.307777
60	H	0.558681	0.442298	0.336109
61	H	0.538256	0.462388	0.669147
62	H	0.503382	0.496678	0.621865
63	H	0.506101	0.494002	0.492806
64	H	0.479373	0.520281	0.720325
65	H	0.446014	0.553079	0.602721
66	H	0.415691	0.582888	0.468543
67	H	0.386631	0.611461	0.228544
68	H	0.527451	0.473009	0.275684
69	C	0.590157	0.181341	0
70	C	0.584484	0.169966	0.186682
71	C	0.564443	0.129788	0.200317
72	C	0.555445	0.111751	0.023905
73	C	0.534999	0.070764	0.980243
74	C	0.528062	0.056856	0.793609
75	C	0.508842	0.018327	0.764916
76	N	0.496164	0.99291	0.907443
77	C	0.502388	0.005385	0.090724
78	C	0.487555	0.975649	0.241947
79	C	0.49137	0.983297	0.437485
80	C	0.476557	0.953601	0.567746
81	C	0.458153	0.916704	0.501254
82	C	0.45504	0.910465	0.305468
83	C	0.435923	0.872138	0.223207
84	C	0.418589	0.837385	0.314847
85	C	0.403036	0.806205	0.18574
86	C	0.409052	0.81827	0
87	S	0.432697	0.865673	0.978431
88	N	0.469439	0.93933	0.179122
89	C	0.521708	0.044117	0.129174
90	S	0.572087	0.145118	0.843779
91	H	0.593961	0.188963	0.307777
92	H	0.557169	0.115204	0.336109
93	H	0.537127	0.075031	0.669147
94	H	0.502918	0.006453	0.621865
95	H	0.505588	0.011802	0.492806
96	H	0.479372	0.959243	0.720325
97	H	0.446652	0.893648	0.602721
98	H	0.416913	0.834024	0.468543
99	H	0.388408	0.776879	0.228544
100	H	0.526532	0.053787	0.275684
101	C	0.816936	0.408842	0
102	C	0.828395	0.414531	0.186682
103	C	0.868868	0.434621	0.200317
104	C	0.887038	0.443638	0.023905
105	C	0.928326	0.464131	0.980243
106	C	0.942336	0.471084	0.793609
107	C	0.981148	0.490348	0.764916
108	N	0.006752	0.503057	0.907443
109	C	0.994185	0.49682	0.090724
110	C	0.024139	0.511688	0.241947
111	C	0.016435	0.507864	0.437485
112	C	0.04635	0.522713	0.567746
113	C	0.083518	0.541162	0.501254
114	C	0.089803	0.544281	0.305468
115	C	0.128411	0.563444	0.223207
116	C	0.16342	0.580822	0.314847
117	C	0.194829	0.596412	0.18574
118	C	0.182676	0.590378	0
119	S	0.134924	0.566676	0.978431
120	N	0.060726	0.529848	0.179122
121	C	0.955168	0.477454	0.129174
122	S	0.853425	0.426952	0.843779
123	H	0.809258	0.405034	0.307777
124	H	0.883559	0.441914	0.336109
125	H	0.924027	0.461996	0.669147
126	H	0.99311	0.496285	0.621865
127	H	0.987721	0.493612	0.492806
128	H	0.040666	0.519891	0.720325
129	H	0.106744	0.55269	0.602721
130	H	0.166806	0.582504	0.468543
131	H	0.224371	0.611076	0.228544
132	H	0.945428	0.47262	0.275684
