data_C90H36N12O6S18_2023-05-15_17:14:39
#******************************************
#
# CIF file created by Zeo++
# Zeo++ is an open source package to
# analyze microporous materials
#
#*******************************************

_cell_length_a		55.237   
_cell_length_b		55.5355   
_cell_length_c		7   
_cell_angle_alpha		90   
_cell_angle_beta		90   
_cell_angle_gamma		119.765   

_symmetry_space_group_name_H-M		'P1'
_symmetry_Int_Tables_number		1
_symmetry_cell_setting		Monoclinic

loop_
_symmetry_equiv_pos_as_xyz
'+x,+y,+z'

loop_
_atom_site_label
_atom_site_type_symbol
_atom_site_fract_x
_atom_site_fract_y
_atom_site_fract_z
1	C	0.361395	0.672536	0.999995
2	O	0.385997	0.676853	0.999991
3	C	0.339148	0.643693	0.999998
4	C	0.34346	0.622432	0
5	N	0.371	0.627404	0
6	C	0.310697	0.638573	3e-06
7	O	0.290704	0.613713	5e-06
8	C	0.303869	0.660755	6e-06
9	C	0.277686	0.655402	5e-06
10	N	0.256039	0.627117	0
11	C	0.327185	0.689369	4e-06
12	O	0.32176	0.708551	7e-06
13	C	0.356095	0.695774	0.999999
14	C	0.37665	0.721877	0.999998
15	N	0.372528	0.745049	0
16	H	0.32643	0.601735	1e-06
17	H	0.272168	0.671291	8e-06
18	H	0.397434	0.725605	0.999997
19	C	0.638605	0.327464	0.999995
20	O	0.614003	0.323147	0.999991
21	C	0.660852	0.356307	0.999998
22	C	0.65654	0.377568	0
23	N	0.629	0.372596	0
24	C	0.689303	0.361427	3e-06
25	O	0.709296	0.386287	5e-06
26	C	0.696131	0.339245	6e-06
27	C	0.722314	0.344598	5e-06
28	N	0.743961	0.372883	0
29	C	0.672815	0.310631	4e-06
30	O	0.67824	0.291449	7e-06
31	C	0.643905	0.304226	0.999999
32	C	0.62335	0.278123	0.999998
33	N	0.627472	0.254951	0
34	H	0.67357	0.398265	1e-06
35	H	0.727832	0.328709	8e-06
36	H	0.602566	0.274395	0.999997
37	C	0.387802	0.610809	0
38	C	0.395887	0.602827	0.838284
39	C	0.410493	0.588401	0.884886
40	C	0.41301	0.585913	0.080209
41	C	0.426427	0.572662	0.178413
42	C	0.428922	0.570196	0.373117
43	C	0.443514	0.555784	0.418945
44	C	0.45203	0.547374	0.259039
45	C	0.467221	0.532371	0.260297
46	N	0.47426	0.52542	0.422546
47	C	0.488553	0.511304	0.387828
48	C	0.499188	0.500799	0.526074
49	C	0.513269	0.486893	0.471234
50	C	0.517093	0.483118	0.27924
51	C	0.506459	0.493621	0.141014
52	C	0.492379	0.507526	0.195827
53	S	0.477466	0.522254	0.057974
54	N	0.531377	0.469011	0.244615
55	C	0.538435	0.462039	0.406457
56	C	0.55362	0.447043	0.41366
57	C	0.562304	0.438467	0.571894
58	C	0.576854	0.424096	0.522584
59	C	0.579157	0.421822	0.327416
60	C	0.59268	0.408467	0.231523
61	C	0.605814	0.395494	0.317689
62	C	0.617128	0.384321	0.183693
63	C	0.612198	0.389191	0
64	S	0.594487	0.406682	0.986344
65	S	0.563409	0.437375	0.207861
66	S	0.528188	0.472158	0.609093
67	S	0.442055	0.557228	0.055522
68	S	0.397327	0.6014	0.203652
69	H	0.39174	0.606923	0.694228
70	H	0.418711	0.580286	0.777812
71	H	0.420726	0.578289	0.4805
72	H	0.447615	0.551733	0.563493
73	H	0.496297	0.503654	0.676214
74	H	0.509358	0.490758	0.990868
75	H	0.558568	0.442156	0.718098
76	H	0.585179	0.415875	0.627995
77	H	0.607396	0.393931	0.470885
78	H	0.628148	0.373436	0.221879
79	C	0.389094	0.778238	0
80	C	0.397062	0.794205	0.838284
81	C	0.411463	0.823056	0.884886
82	C	0.413947	0.828031	0.080209
83	C	0.427175	0.854532	0.178413
84	C	0.429636	0.859462	0.373117
85	C	0.444023	0.888286	0.418945
86	C	0.452418	0.905106	0.259039
87	C	0.467396	0.935113	0.260297
88	N	0.474335	0.949015	0.422546
89	C	0.488426	0.977247	0.387828
90	C	0.498912	0.998256	0.526074
91	C	0.512794	0.026069	0.471234
92	C	0.516563	0.03362	0.27924
93	C	0.506078	0.012615	0.141014
94	C	0.492197	0.984804	0.195827
95	S	0.477495	0.955348	0.057974
96	N	0.530645	0.061834	0.244615
97	C	0.537605	0.075777	0.406457
98	C	0.552575	0.105771	0.41366
99	C	0.561136	0.122923	0.571894
100	C	0.575482	0.151664	0.522584
101	C	0.577752	0.156212	0.327416
102	C	0.591084	0.182923	0.231523
103	C	0.604034	0.208867	0.317689
104	C	0.615188	0.231215	0.183693
105	C	0.610326	0.221475	0
106	S	0.592865	0.186492	0.986344
107	S	0.562226	0.125106	0.207861
108	S	0.527503	0.055538	0.609093
109	S	0.442582	0.8854	0.055522
110	S	0.398486	0.797054	0.203652
111	H	0.392973	0.786013	0.694228
112	H	0.419564	0.839288	0.777812
113	H	0.421557	0.843274	0.4805
114	H	0.448068	0.896388	0.563493
115	H	0.496062	0.992545	0.676214
116	H	0.508936	0.018342	0.990868
117	H	0.557453	0.115544	0.718098
118	H	0.583689	0.168107	0.627995
119	H	0.605594	0.211993	0.470885
120	H	0.626053	0.252983	0.221879
121	C	0.222671	0.610523	0
122	C	0.206618	0.602538	0.838284
123	C	0.177612	0.588113	0.884886
124	C	0.17261	0.585626	0.080209
125	C	0.145965	0.572376	0.178413
126	C	0.141009	0.569912	0.373117
127	C	0.112029	0.5555	0.418945
128	C	0.095119	0.54709	0.259039
129	C	0.06495	0.532086	0.260297
130	N	0.050973	0.525135	0.422546
131	C	0.022588	0.511019	0.387828
132	C	0.001467	0.500515	0.526074
133	C	0.973503	0.486608	0.471234
134	C	0.965912	0.482832	0.27924
135	C	0.987029	0.493334	0.141014
136	C	0.014991	0.50724	0.195827
137	S	0.044606	0.521968	0.057974
138	N	0.937545	0.468725	0.244615
139	C	0.923527	0.461754	0.406457
140	C	0.893372	0.446757	0.41366
141	C	0.876127	0.43818	0.571894
142	C	0.847231	0.42381	0.522584
143	C	0.842659	0.421536	0.327416
144	C	0.815803	0.40818	0.231523
145	C	0.789719	0.395208	0.317689
146	C	0.767251	0.384034	0.183693
147	C	0.777043	0.388904	0
148	S	0.812214	0.406395	0.986344
149	S	0.873932	0.437089	0.207861
150	S	0.943875	0.471874	0.609093
151	S	0.114931	0.556942	0.055522
152	S	0.203754	0.601116	0.203652
153	H	0.214854	0.606633	0.694228
154	H	0.161292	0.579996	0.777812
155	H	0.157284	0.578006	0.4805
156	H	0.103884	0.55145	0.563493
157	H	0.007208	0.50337	0.676214
158	H	0.981272	0.490471	0.990868
159	H	0.883546	0.44187	0.718098
160	H	0.830699	0.415588	0.627995
161	H	0.786577	0.393646	0.470885
162	H	0.745365	0.373151	0.221879
