data_C78H36N12O6S6_2023-05-11_12:11:17
#******************************************
#
# CIF file created by Zeo++
# Zeo++ is an open source package to
# analyze microporous materials
#
#*******************************************

_cell_length_a		43.2282   
_cell_length_b		43.5268   
_cell_length_c		7   
_cell_angle_alpha		90   
_cell_angle_beta		90   
_cell_angle_gamma		119.7   

_symmetry_space_group_name_H-M		'P1'
_symmetry_Int_Tables_number		1
_symmetry_cell_setting		Monoclinic

loop_
_symmetry_equiv_pos_as_xyz
'+x,+y,+z'

loop_
_atom_site_label
_atom_site_type_symbol
_atom_site_fract_x
_atom_site_fract_y
_atom_site_fract_z
1	C	0.369181	0.674151	0.999995
2	O	0.40061	0.679654	0.999991
3	C	0.340802	0.637373	0.999998
4	C	0.346348	0.610265	0
5	N	0.381529	0.616604	0
6	C	0.304455	0.630845	3e-06
7	O	0.27895	0.599147	5e-06
8	C	0.295693	0.65913	6e-06
9	C	0.262246	0.652304	5e-06
10	N	0.234633	0.616238	0
11	C	0.325439	0.695613	4e-06
12	O	0.318474	0.720073	7e-06
13	C	0.36237	0.703781	0.999999
14	C	0.388591	0.737064	0.999998
15	N	0.383285	0.766609	0
16	H	0.324621	0.583875	1e-06
17	H	0.255169	0.672563	8e-06
18	H	0.415142	0.741817	0.999997
19	C	0.630819	0.325849	0.999995
20	O	0.59939	0.320346	0.999991
21	C	0.659198	0.362627	0.999998
22	C	0.653652	0.389735	0
23	N	0.618471	0.383396	0
24	C	0.695545	0.369155	3e-06
25	O	0.72105	0.400853	5e-06
26	C	0.704307	0.34087	6e-06
27	C	0.737754	0.347696	5e-06
28	N	0.765367	0.383762	0
29	C	0.674561	0.304387	4e-06
30	O	0.681526	0.279927	7e-06
31	C	0.63763	0.296219	0.999999
32	C	0.611409	0.262936	0.999998
33	N	0.616715	0.233391	0
34	H	0.675379	0.416125	1e-06
35	H	0.744831	0.327437	8e-06
36	H	0.584858	0.258183	0.999997
37	C	0.403027	0.595445	0
38	C	0.40001	0.598412	0.192804
39	S	0.419761	0.578969	0.3165
40	C	0.432644	0.566292	0.110976
41	C	0.452519	0.546728	0.119769
42	C	0.462859	0.536549	0.954659
43	N	0.48108	0.518615	0.949091
44	C	0.490533	0.509312	0.114359
45	C	0.481248	0.518454	0.290319
46	C	0.462327	0.537077	0.290097
47	C	0.490677	0.509175	0.463105
48	C	0.509322	0.490824	0.463106
49	C	0.518749	0.481543	0.29032
50	C	0.537671	0.46292	0.290097
51	C	0.547476	0.453267	0.119767
52	C	0.567353	0.433704	0.110975
53	C	0.578481	0.422757	0.951545
54	C	0.596973	0.404555	0
55	C	0.599985	0.401583	0.192804
56	S	0.58023	0.421022	0.316499
57	C	0.537134	0.463444	0.954658
58	N	0.518913	0.481378	0.949092
59	C	0.509461	0.490682	0.11436
60	C	0.421519	0.577244	0.951546
61	H	0.387296	0.610926	0.267534
62	H	0.456836	0.542476	0.813332
63	H	0.45541	0.543887	0.426925
64	H	0.483578	0.516164	0.599014
65	H	0.516422	0.483837	0.599017
66	H	0.544589	0.456112	0.426923
67	H	0.573619	0.427549	0.805761
68	H	0.612698	0.389069	0.267537
69	H	0.543155	0.457516	0.81333
70	H	0.426386	0.572456	0.805762
71	C	0.404397	0.808928	0
72	C	0.401437	0.802991	0.192804
73	S	0.420836	0.841874	0.3165
74	C	0.433485	0.867231	0.110976
75	C	0.453005	0.906357	0.119769
76	C	0.463161	0.926713	0.954659
77	N	0.481055	0.96258	0.949091
78	C	0.490338	0.981187	0.114359
79	C	0.481217	0.962907	0.290319
80	C	0.462634	0.92566	0.290097
81	C	0.490475	0.981466	0.463105
82	C	0.508785	0.018169	0.463106
83	C	0.518045	0.036728	0.29032
84	C	0.536627	0.073975	0.290097
85	C	0.546258	0.093278	0.119767
86	C	0.565777	0.132404	0.110975
87	C	0.5767	0.154305	0.951545
88	C	0.594861	0.190707	0
89	C	0.597827	0.196643	0.192804
90	S	0.578431	0.157761	0.316499
91	C	0.536104	0.072922	0.954658
92	N	0.51821	0.037055	0.949092
93	C	0.508926	0.018448	0.11436
94	C	0.422557	0.84533	0.951546
95	H	0.388951	0.777964	0.267534
96	H	0.457248	0.914858	0.813332
97	H	0.45584	0.912044	0.426925
98	H	0.483502	0.967491	0.599014
99	H	0.515756	0.032144	0.599017
100	H	0.543419	0.087592	0.426923
101	H	0.571919	0.144727	0.805761
102	H	0.610313	0.221671	0.267537
103	H	0.542019	0.084776	0.81333
104	H	0.427335	0.854908	0.805762
105	C	0.192023	0.595079	0
106	C	0.198	0.598048	0.192804
107	S	0.15885	0.578609	0.3165
108	C	0.133318	0.565929	0.110976
109	C	0.093922	0.546367	0.119769
110	C	0.073426	0.53619	0.954659
111	N	0.037312	0.518256	0.949091
112	C	0.018576	0.508952	0.114359
113	C	0.036982	0.518091	0.290319
114	C	0.074486	0.536714	0.290097
115	C	0.018295	0.508811	0.463105
116	C	0.98134	0.490459	0.463106
117	C	0.962653	0.481181	0.29032
118	C	0.925149	0.462557	0.290097
119	C	0.905713	0.452907	0.119767
120	C	0.866317	0.433343	0.110975
121	C	0.844265	0.42239	0.951545
122	C	0.807612	0.40419	0
123	C	0.801635	0.401225	0.192804
124	S	0.840785	0.420669	0.316499
125	C	0.926209	0.463086	0.954658
126	N	0.962324	0.481019	0.949092
127	C	0.981059	0.490322	0.11436
128	C	0.15537	0.576878	0.951546
129	H	0.2232	0.610562	0.267534
130	H	0.085363	0.542118	0.813332
131	H	0.088196	0.543521	0.426925
132	H	0.032367	0.515798	0.599014
133	H	0.967269	0.483471	0.599017
134	H	0.911438	0.455748	0.426923
135	H	0.853909	0.427176	0.805761
136	H	0.776435	0.388712	0.267537
137	H	0.914273	0.45716	0.81333
138	H	0.145726	0.572088	0.805762
