data_C96H48N6O6S12_2023-05-15_07:22:41
#******************************************
#
# CIF file created by Zeo++
# Zeo++ is an open source package to
# analyze microporous materials
#
#*******************************************

_cell_length_a		53.1302   
_cell_length_b		53.4287   
_cell_length_c		7   
_cell_angle_alpha		90   
_cell_angle_beta		90   
_cell_angle_gamma		119.756   

_symmetry_space_group_name_H-M		'P1'
_symmetry_Int_Tables_number		1
_symmetry_cell_setting		Monoclinic

loop_
_symmetry_equiv_pos_as_xyz
'+x,+y,+z'

loop_
_atom_site_label
_atom_site_type_symbol
_atom_site_fract_x
_atom_site_fract_y
_atom_site_fract_z
1	C	0.362507	0.672767	0.999995
2	O	0.388083	0.677253	0.999991
3	C	0.339383	0.642789	0.999998
4	C	0.343871	0.620692	0
5	N	0.372501	0.625859	0
6	C	0.309805	0.637468	3e-06
7	O	0.289024	0.61163	5e-06
8	C	0.302702	0.660523	6e-06
9	C	0.275482	0.654959	5e-06
10	N	0.252982	0.625561	0
11	C	0.326937	0.690262	4e-06
12	O	0.321292	0.710199	7e-06
13	C	0.356992	0.696919	0.999999
14	C	0.378357	0.724049	0.999998
15	N	0.374067	0.748132	0
16	H	0.326169	0.599181	1e-06
17	H	0.269742	0.671473	8e-06
18	H	0.399964	0.727923	0.999997
19	C	0.637493	0.327233	0.999995
20	O	0.611917	0.322747	0.999991
21	C	0.660617	0.357211	0.999998
22	C	0.656129	0.379308	0
23	N	0.627499	0.374141	0
24	C	0.690195	0.362532	3e-06
25	O	0.710976	0.38837	5e-06
26	C	0.697298	0.339477	6e-06
27	C	0.724518	0.345041	5e-06
28	N	0.747018	0.374439	0
29	C	0.673063	0.309738	4e-06
30	O	0.678708	0.289801	7e-06
31	C	0.643008	0.303081	0.999999
32	C	0.621643	0.275951	0.999998
33	N	0.625933	0.251868	0
34	H	0.673831	0.400819	1e-06
35	H	0.730258	0.328527	8e-06
36	H	0.600036	0.272077	0.999997
37	C	0.389973	0.608612	0
38	C	0.390495	0.608097	0.195458
39	S	0.408122	0.590698	0.275217
40	C	0.415183	0.583727	0.04664
41	C	0.430744	0.568368	0.006462
42	C	0.437249	0.561952	0.828349
43	C	0.452821	0.546581	0.837276
44	C	0.458215	0.541252	0.022142
45	C	0.473626	0.52604	0.088523
46	C	0.477457	0.522264	0.282645
47	C	0.492084	0.507826	0.341285
48	C	0.503442	0.496609	0.207421
49	C	0.518216	0.482026	0.26402
50	C	0.529732	0.470652	0.130956
51	C	0.545142	0.455441	0.197417
52	C	0.550525	0.450125	0.382358
53	C	0.566097	0.434754	0.391606
54	C	0.572604	0.428332	0.2136
55	C	0.588065	0.413069	0.168167
56	C	0.594574	0.406643	0.989228
57	C	0.610027	0.391388	0
58	C	0.615212	0.386269	0.183472
59	S	0.601218	0.400085	0.34482
60	S	0.559493	0.441276	0.038718
61	C	0.525902	0.474426	0.936829
62	C	0.511275	0.488865	0.878177
63	C	0.499916	0.500083	0.012032
64	C	0.485141	0.514667	0.955439
65	S	0.443873	0.555403	0.180932
66	C	0.403963	0.594803	0.913433
67	H	0.381511	0.616965	0.29567
68	H	0.431245	0.567882	0.695107
69	H	0.459614	0.539881	0.710726
70	H	0.469184	0.530436	0.39401
71	H	0.494468	0.505478	0.493573
72	H	0.520582	0.479695	0.416197
73	H	0.543732	0.45683	0.508891
74	H	0.572091	0.428836	0.525028
75	H	0.588505	0.412634	0.856412
76	H	0.626433	0.375192	0.23148
77	H	0.534173	0.466257	0.825469
78	H	0.508889	0.491215	0.725901
79	H	0.482773	0.517	0.80328
80	H	0.405731	0.593057	0.76052
81	C	0.391283	0.782627	0
82	C	0.391797	0.783657	0.195458
83	S	0.409165	0.818457	0.275217
84	C	0.416123	0.832398	0.04664
85	C	0.431455	0.863118	0.006462
86	C	0.437858	0.875954	0.828349
87	C	0.453201	0.906698	0.837276
88	C	0.458521	0.917351	0.022142
89	C	0.473706	0.947777	0.088523
90	C	0.477474	0.955334	0.282645
91	C	0.491887	0.984211	0.341285
92	C	0.503083	0.00664	0.207421
93	C	0.51764	0.035807	0.26402
94	C	0.528993	0.058549	0.130956
95	C	0.544177	0.088971	0.197417
96	C	0.549483	0.099601	0.382358
97	C	0.564826	0.130344	0.391606
98	C	0.571237	0.143189	0.2136
99	C	0.586472	0.173714	0.168167
100	C	0.592886	0.186566	0.989228
101	C	0.608114	0.217075	0
102	C	0.613223	0.227313	0.183472
103	S	0.599433	0.199683	0.34482
104	S	0.558316	0.117303	0.038718
105	C	0.525226	0.050994	0.936829
106	C	0.510814	0.022116	0.878177
107	C	0.499616	0.999685	0.012032
108	C	0.485058	0.970516	0.955439
109	S	0.444396	0.889043	0.180932
110	C	0.405068	0.810246	0.913433
111	H	0.382945	0.765921	0.29567
112	H	0.431939	0.864098	0.695107
113	H	0.45989	0.920103	0.710726
114	H	0.469318	0.938996	0.39401
115	H	0.494231	0.988912	0.493573
116	H	0.519966	0.040473	0.416197
117	H	0.542791	0.086191	0.508891
118	H	0.570733	0.142178	0.525028
119	H	0.586906	0.174584	0.856412
120	H	0.624281	0.249467	0.23148
121	H	0.53338	0.067327	0.825469
122	H	0.508467	0.01741	0.725901
123	H	0.48273	0.965846	0.80328
124	H	0.40681	0.813737	0.76052
125	C	0.218294	0.608314	0
126	C	0.217258	0.607799	0.195458
127	S	0.182263	0.590399	0.275217
128	C	0.168244	0.583428	0.04664
129	C	0.137351	0.568067	0.006462
130	C	0.124443	0.561646	0.828349
131	C	0.093527	0.546274	0.837276
132	C	0.082814	0.54095	0.022142
133	C	0.052218	0.525737	0.088523
134	C	0.044618	0.521955	0.282645
135	C	0.015579	0.507516	0.341285
136	C	0.993025	0.496304	0.207421
137	C	0.963693	0.48172	0.26402
138	C	0.940825	0.470352	0.130956
139	C	0.910231	0.455141	0.197417
140	C	0.899542	0.449826	0.382358
141	C	0.868626	0.434455	0.391606
142	C	0.855709	0.428032	0.2136
143	C	0.825014	0.41277	0.168167
144	C	0.81209	0.406344	0.989228
145	C	0.781409	0.39109	0
146	C	0.771114	0.385971	0.183472
147	S	0.798899	0.399786	0.34482
148	S	0.88174	0.440974	0.038718
149	C	0.948421	0.474133	0.936829
150	C	0.977461	0.488572	0.878177
151	C	1.8e-05	0.499785	0.012032
152	C	0.029351	0.51437	0.955439
153	S	0.111281	0.555108	0.180932
154	C	0.190519	0.594504	0.913433
155	H	0.235093	0.616667	0.29567
156	H	0.136366	0.567573	0.695107
157	H	0.080046	0.539569	0.710726
158	H	0.061048	0.530121	0.39401
159	H	0.010851	0.505163	0.493573
160	H	0.959001	0.479385	0.416197
161	H	0.913027	0.456532	0.508891
162	H	0.856726	0.428538	0.525028
163	H	0.824139	0.412335	0.856412
164	H	0.748836	0.374894	0.23148
165	H	0.931997	0.465968	0.825469
166	H	0.982194	0.490928	0.725901
167	H	0.034047	0.516708	0.80328
168	H	0.187009	0.592759	0.76052
