data_C111H66N6O6S12_2023-05-11_01:22:02
#******************************************
#
# CIF file created by Zeo++
# Zeo++ is an open source package to
# analyze microporous materials
#
#*******************************************

_cell_length_a		52.3698   
_cell_length_b		52.6683   
_cell_length_c		7   
_cell_angle_alpha		90   
_cell_angle_beta		90   
_cell_angle_gamma		119.752   

_symmetry_space_group_name_H-M		'P1'
_symmetry_Int_Tables_number		1
_symmetry_cell_setting		Monoclinic

loop_
_symmetry_equiv_pos_as_xyz
'+x,+y,+z'

loop_
_atom_site_label
_atom_site_type_symbol
_atom_site_fract_x
_atom_site_fract_y
_atom_site_fract_z
1	C	0.36293	0.672855	0.999995
2	O	0.388878	0.677406	0.999991
3	C	0.339473	0.642445	0.999998
4	C	0.344027	0.62003	0
5	N	0.373073	0.625272	0
6	C	0.309465	0.637047	3e-06
7	O	0.288384	0.610837	5e-06
8	C	0.302257	0.660434	6e-06
9	C	0.274643	0.654791	5e-06
10	N	0.251818	0.624969	0
11	C	0.326843	0.690602	4e-06
12	O	0.321114	0.710826	7e-06
13	C	0.357334	0.697355	0.999999
14	C	0.379007	0.724876	0.999998
15	N	0.374652	0.749305	0
16	H	0.32607	0.598209	1e-06
17	H	0.268818	0.671542	8e-06
18	H	0.400927	0.728805	0.999997
19	C	0.63707	0.327145	0.999995
20	O	0.611122	0.322594	0.999991
21	C	0.660527	0.357555	0.999998
22	C	0.655973	0.37997	0
23	N	0.626927	0.374728	0
24	C	0.690535	0.362953	3e-06
25	O	0.711616	0.389163	5e-06
26	C	0.697743	0.339566	6e-06
27	C	0.725357	0.345209	5e-06
28	N	0.748182	0.375031	0
29	C	0.673157	0.309398	4e-06
30	O	0.678886	0.289174	7e-06
31	C	0.642666	0.302645	0.999999
32	C	0.620993	0.275124	0.999998
33	N	0.625348	0.250695	0
34	H	0.67393	0.401791	1e-06
35	H	0.731182	0.328458	8e-06
36	H	0.599073	0.271195	0.999997
37	C	0.6092	0.392224	0
38	C	0.634957	0.413414	0.921322
39	C	0.634925	0.440389	0.904185
40	C	0.609227	0.438948	0.970828
41	C	0.601704	0.46162	0.970745
42	C	0.584934	0.463825	0.108766
43	S	0.580577	0.495262	0.071508
44	C	0.544712	0.477286	0.968625
45	C	0.532134	0.450946	0.848042
46	C	0.504713	0.445139	0.813306
47	C	0.498943	0.466216	0.902757
48	C	0.522457	0.486464	0.997499
49	C	0.524848	0.510848	0.103628
50	C	0.548552	0.53783	0.108955
51	C	0.543029	0.557762	0.234449
52	C	0.512078	0.537761	0.300437
53	C	0.496386	0.546148	0.428178
54	C	0.482376	0.532602	0.588735
55	C	0.470125	0.548164	0.683856
56	C	0.475801	0.572286	0.587667
57	C	0.492112	0.571831	0.417831
58	S	0.505138	0.598581	0.232628
59	C	0.4846	0.573761	0.043939
60	C	0.460332	0.575315	0.005769
61	C	0.456022	0.595739	0.123016
62	C	0.432133	0.601697	0.113251
63	C	0.420401	0.611587	0.254004
64	C	0.396539	0.615088	0.188785
65	C	0.3908	0.607776	0
66	S	0.413107	0.596732	0.901591
67	C	0.477809	0.609735	0.251514
68	C	0.502293	0.511144	0.223436
69	C	0.600598	0.503156	0.851766
70	C	0.610515	0.484336	0.825452
71	S	0.585287	0.403968	0.0521
72	H	0.65297	0.410121	0.878433
73	H	0.653159	0.460189	0.84601
74	H	0.575966	0.449348	0.230741
75	H	0.542699	0.439036	0.800408
76	H	0.488743	0.42704	0.729081
77	H	0.478066	0.465579	0.891147
78	H	0.568929	0.545037	0.032885
79	H	0.545182	0.576256	0.151122
80	H	0.558479	0.565697	0.354519
81	H	0.480985	0.512881	0.645545
82	H	0.458282	0.541174	0.817205
83	H	0.469747	0.588416	0.624199
84	H	0.49054	0.55943	0.968857
85	H	0.44467	0.56208	0.897057
86	H	0.428492	0.616065	0.399594
87	H	0.38455	0.622556	0.276837
88	H	0.479307	0.626172	0.351008
89	H	0.480791	0.492226	0.245591
90	H	0.604646	0.520689	0.754077
91	H	0.623135	0.484886	0.701697
92	C	0.607272	0.215401	0
93	C	0.585886	0.219864	0.921322
94	C	0.558824	0.192991	0.904185
95	C	0.560399	0.168937	0.970828
96	C	0.537691	0.138915	0.970745
97	C	0.535562	0.120087	0.108766
98	S	0.504046	0.084486	0.071508
99	C	0.522258	0.066797	0.968625
100	C	0.548745	0.080532	0.848042
101	C	0.554708	0.059112	0.813306
102	C	0.533592	0.032417	0.902757
103	C	0.513162	0.035592	0.997499
104	C	0.488688	0.013701	0.103628
105	C	0.461501	0.010365	0.108955
106	C	0.441533	0.985053	0.234449
107	C	0.461752	0.974256	0.300437
108	C	0.453416	0.950345	0.428178
109	C	0.467076	0.949929	0.588735
110	C	0.451524	0.922292	0.683856
111	C	0.427297	0.903921	0.587667
112	C	0.427672	0.920551	0.417831
113	S	0.400772	0.906855	0.232628
114	C	0.425774	0.911181	0.043939
115	C	0.424335	0.885563	0.005769
116	C	0.403868	0.860967	0.123016
117	C	0.398009	0.831343	0.113251
118	C	0.388145	0.809865	0.254004
119	C	0.384752	0.782714	0.188785
120	C	0.392116	0.784297	0
121	S	0.403085	0.817412	0.901591
122	C	0.389718	0.86865	0.251514
123	C	0.488503	0.991034	0.223436
124	C	0.496028	0.096489	0.851766
125	C	0.514859	0.125051	0.825452
126	S	0.59561	0.179997	0.0521
127	H	0.5891	0.241007	0.878433
128	H	0.538871	0.191376	0.84601
129	H	0.55013	0.125597	0.230741
130	H	0.560641	0.102862	0.800408
131	H	0.572944	0.061281	0.729081
132	H	0.534335	0.012343	0.891147
133	H	0.454169	0.023404	0.032885
134	H	0.422969	0.968788	0.151122
135	H	0.433496	0.992483	0.354519
136	H	0.486866	0.968172	0.645545
137	H	0.458596	0.917502	0.817205
138	H	0.411146	0.881866	0.624199
139	H	0.440121	0.931332	0.968857
140	H	0.43769	0.883197	0.897057
141	H	0.383613	0.813435	0.399594
142	H	0.37732	0.763392	0.276837
143	H	0.373221	0.85378	0.351008
144	H	0.507588	0.988531	0.245591
145	H	0.478418	0.083057	0.754077
146	H	0.514243	0.137021	0.701697
147	C	0.783071	0.391922	0
148	C	0.7787	0.366269	0.921322
149	C	0.805794	0.366166	0.904185
150	C	0.829917	0.391662	0.970828
151	C	0.860148	0.399011	0.970745
152	C	0.879047	0.415634	0.108766
153	S	0.91492	0.419799	0.071508
154	C	0.932574	0.455463	0.968625
155	C	0.918664	0.468069	0.848042
156	C	0.940123	0.495296	0.813306
157	C	0.967008	0.500914	0.902757
158	C	0.963925	0.477491	0.997499
159	C	0.986007	0.474997	0.103628
160	C	0.98949	0.451352	0.108955
161	C	0.014982	0.456731	0.234449
162	C	0.025713	0.48753	0.300437
163	C	0.049742	0.503053	0.428178
164	C	0.050092	0.517016	0.588735
165	C	0.077894	0.52909	0.683856
166	C	0.096445	0.52334	0.587667
167	C	0.079759	0.507164	0.417831
168	S	0.093634	0.494111	0.232628
169	C	0.089169	0.514605	0.043939
170	C	0.114876	0.538668	0.005769
171	C	0.139654	0.542841	0.123016
172	C	0.169401	0.566507	0.113251
173	C	0.190997	0.578094	0.254004
174	C	0.218252	0.601745	0.188785
175	C	0.216628	0.607474	0
176	S	0.183352	0.585403	0.901591
177	C	0.132016	0.521162	0.251514
178	C	0.008748	0.497368	0.223436
179	C	0.902918	0.399902	0.851766
180	C	0.87417	0.39016	0.825452
181	S	0.818647	0.415582	0.0521
182	H	0.757473	0.348419	0.878433
183	H	0.807514	0.347982	0.84601
184	H	0.873447	0.424602	0.230741
185	H	0.896203	0.457649	0.800408
186	H	0.937856	0.511226	0.729081
187	H	0.987142	0.521624	0.891147
188	H	0.976445	0.431105	0.032885
189	H	0.031392	0.454503	0.151122
190	H	0.007568	0.441367	0.354519
191	H	0.031692	0.518494	0.645545
192	H	0.082665	0.540871	0.817205
193	H	0.118651	0.529265	0.624199
194	H	0.068882	0.508785	0.968857
195	H	0.117184	0.554269	0.897057
196	H	0.187439	0.570047	0.399594
197	H	0.237673	0.613599	0.276837
198	H	0.147015	0.519594	0.351008
199	H	0.011164	0.518789	0.245591
200	H	0.91648	0.3958	0.754077
201	H	0.862165	0.377639	0.701697
