data_C96H48N12O6S12_2023-05-15_06:54:08
#******************************************
#
# CIF file created by Zeo++
# Zeo++ is an open source package to
# analyze microporous materials
#
#*******************************************

_cell_length_a		55.0366   
_cell_length_b		55.3351   
_cell_length_c		7   
_cell_angle_alpha		90   
_cell_angle_beta		90   
_cell_angle_gamma		119.764   

_symmetry_space_group_name_H-M		'P1'
_symmetry_Int_Tables_number		1
_symmetry_cell_setting		Monoclinic

loop_
_symmetry_equiv_pos_as_xyz
'+x,+y,+z'

loop_
_atom_site_label
_atom_site_type_symbol
_atom_site_fract_x
_atom_site_fract_y
_atom_site_fract_z
1	C	0.361497	0.672558	0.999995
2	O	0.386189	0.676889	0.999991
3	C	0.33917	0.64361	0.999998
4	C	0.343498	0.622272	0
5	N	0.371138	0.627262	0
6	C	0.310615	0.638471	3e-06
7	O	0.290549	0.613521	5e-06
8	C	0.303762	0.660734	6e-06
9	C	0.277484	0.655362	5e-06
10	N	0.255758	0.626974	0
11	C	0.327163	0.689451	4e-06
12	O	0.321717	0.708703	7e-06
13	C	0.356178	0.695879	0.999999
14	C	0.376807	0.722077	0.999998
15	N	0.372669	0.745332	0
16	H	0.326406	0.601501	1e-06
17	H	0.271946	0.671308	8e-06
18	H	0.397666	0.725818	0.999997
19	C	0.638503	0.327442	0.999995
20	O	0.613811	0.323111	0.999991
21	C	0.66083	0.35639	0.999998
22	C	0.656502	0.377728	0
23	N	0.628862	0.372738	0
24	C	0.689385	0.361529	3e-06
25	O	0.709451	0.386479	5e-06
26	C	0.696238	0.339266	6e-06
27	C	0.722516	0.344638	5e-06
28	N	0.744242	0.373026	0
29	C	0.672837	0.310549	4e-06
30	O	0.678283	0.291297	7e-06
31	C	0.643822	0.304121	0.999999
32	C	0.623193	0.277923	0.999998
33	N	0.627331	0.254668	0
34	H	0.673594	0.398499	1e-06
35	H	0.728054	0.328692	8e-06
36	H	0.602334	0.274182	0.999997
37	C	0.611998	0.389392	0
38	C	0.605983	0.374896	0.169736
39	C	0.592781	0.384407	0.301172
40	C	0.58904	0.405646	0.226326
41	C	0.576686	0.419985	0.32431
42	C	0.575584	0.423012	0.520722
43	C	0.56139	0.437741	0.573165
44	C	0.551986	0.44576	0.415381
45	C	0.536145	0.460527	0.409554
46	C	0.51097	0.450654	0.514265
47	C	0.496018	0.464919	0.504102
48	C	0.507374	0.489812	0.396795
49	C	0.494069	0.507221	0.393187
50	C	0.510006	0.536037	0.420831
51	C	0.496723	0.551941	0.417499
52	C	0.468105	0.539176	0.38024
53	C	0.454147	0.555689	0.369804
54	C	0.449003	0.569605	0.513175
55	C	0.43523	0.583946	0.443847
56	C	0.430661	0.581075	0.248889
57	C	0.417785	0.592982	0.130075
58	C	0.424751	0.6025	0.943769
59	C	0.407763	0.613077	0.868034
60	C	0.388002	0.610608	0
61	S	0.390248	0.596902	0.211754
62	S	0.442625	0.560361	0.153576
63	C	0.453484	0.510054	0.353104
64	N	0.465604	0.493842	0.361146
65	N	0.532235	0.500242	0.300891
66	C	0.5455	0.485157	0.305292
67	S	0.560583	0.435428	0.205822
68	S	0.60179	0.413631	0.995244
69	H	0.610841	0.358502	0.200005
70	H	0.586192	0.37582	0.444031
71	H	0.584655	0.415135	0.624281
72	H	0.558418	0.442307	0.720387
73	H	0.503539	0.432528	0.606596
74	H	0.476417	0.4573	0.582069
75	H	0.532649	0.546046	0.447117
76	H	0.509085	0.574426	0.442895
77	H	0.454566	0.569404	0.66174
78	H	0.429272	0.59602	0.534147
79	H	0.441594	0.602283	0.864738
80	H	0.409811	0.621545	0.725871
81	H	0.43103	0.49861	0.325473
82	H	0.564916	0.49426	0.22357
83	C	0.610123	0.221071	0
84	C	0.624692	0.229529	0.169736
85	C	0.615215	0.206964	0.301172
86	C	0.593929	0.182114	0.226326
87	C	0.579605	0.155585	0.32431
88	C	0.576573	0.151478	0.520722
89	C	0.561867	0.122736	0.573165
90	C	0.553868	0.105423	0.415381
91	C	0.539131	0.075007	0.409554
92	C	0.549154	0.059854	0.514265
93	C	0.534916	0.030819	0.504102
94	C	0.509893	0.017313	0.396795
95	C	0.492494	0.986784	0.393187
96	C	0.463515	0.973918	0.420831
97	C	0.447625	0.944909	0.417499
98	C	0.460564	0.929218	0.38024
99	C	0.444067	0.898933	0.369804
100	C	0.430133	0.879978	0.513175
101	C	0.415814	0.85204	0.443847
102	C	0.418715	0.850363	0.248889
103	C	0.406833	0.825736	0.130075
104	C	0.397253	0.823175	0.943769
105	C	0.386724	0.795792	0.868034
106	C	0.389295	0.778641	0
107	S	0.403031	0.79451	0.211754
108	S	0.439436	0.88285	0.153576
109	C	0.489845	0.943694	0.353104
110	N	0.506049	0.971856	0.361146
111	N	0.499313	0.0316	0.300891
112	C	0.514382	0.059777	0.305292
113	S	0.564191	0.124237	0.205822
114	S	0.58586	0.186818	0.995244
115	H	0.641113	0.250667	0.200005
116	H	0.623859	0.208973	0.444031
117	H	0.584432	0.168319	0.624281
118	H	0.557301	0.115242	0.720387
119	H	0.56737	0.07052	0.606596
120	H	0.542651	0.018953	0.582069
121	H	0.453368	0.986425	0.447117
122	H	0.425013	0.934797	0.442895
123	H	0.430308	0.885699	0.66174
124	H	0.403731	0.834111	0.534147
125	H	0.397391	0.840104	0.864738
126	H	0.378221	0.789397	0.725871
127	H	0.50143	0.932804	0.325473
128	H	0.505159	0.069983	0.22357
129	C	0.777444	0.389105	0
130	C	0.768891	0.395143	0.169736
131	C	0.79157	0.408197	0.301172
132	C	0.816597	0.411808	0.226326
133	C	0.843274	0.423999	0.32431
134	C	0.847408	0.425078	0.520722
135	C	0.876308	0.439092	0.573165
136	C	0.893712	0.448385	0.415381
137	C	0.924289	0.464034	0.409554
138	C	0.939442	0.489061	0.514265
139	C	0.968632	0.50383	0.504102
140	C	0.982299	0.492444	0.396795
141	C	0.013002	0.505563	0.393187
142	C	0.026045	0.489613	0.420831
143	C	0.055218	0.502718	0.417499
144	C	0.070896	0.531174	0.38024
145	C	0.101351	0.544947	0.369804
146	C	0.120429	0.549985	0.513175
147	C	0.148521	0.563583	0.443847
148	C	0.15019	0.56813	0.248889
149	C	0.174947	0.58085	0.130075
150	C	0.177562	0.573894	0.943769
151	C	0.205078	0.590699	0.868034
152	C	0.222269	0.61032	0
153	S	0.206287	0.608156	0.211754
154	S	0.117505	0.556357	0.153576
155	C	0.056236	0.54582	0.353104
156	N	0.027912	0.533871	0.361146
157	N	0.968017	0.467726	0.300891
158	C	0.939684	0.454635	0.305292
159	S	0.874791	0.439904	0.205822
160	S	0.811916	0.39912	0.995244
161	H	0.747611	0.390399	0.200005
162	H	0.789514	0.414776	0.444031
163	H	0.830479	0.416115	0.624281
164	H	0.883846	0.442019	0.720387
165	H	0.928656	0.49652	0.606596
166	H	0.980498	0.523315	0.582069
167	H	0.013548	0.467098	0.447117
168	H	0.065468	0.490345	0.442895
169	H	0.114691	0.544465	0.66174
170	H	0.166562	0.569438	0.534147
171	H	0.160581	0.557182	0.864738
172	H	0.211533	0.588627	0.725871
173	H	0.067105	0.568155	0.325473
174	H	0.92949	0.435326	0.22357
