data_C57H30N18O6_2023-05-11_04:44:34
#******************************************
#
# CIF file created by Zeo++
# Zeo++ is an open source package to
# analyze microporous materials
#
#*******************************************

_cell_length_a		36.1565   
_cell_length_b		36.4552   
_cell_length_c		7   
_cell_angle_alpha		90   
_cell_angle_beta		90   
_cell_angle_gamma		119.642   

_symmetry_space_group_name_H-M		'P1'
_symmetry_Int_Tables_number		1
_symmetry_cell_setting		Monoclinic

loop_
_symmetry_equiv_pos_as_xyz
'+x,+y,+z'

loop_
_atom_site_label
_atom_site_type_symbol
_atom_site_fract_x
_atom_site_fract_y
_atom_site_fract_z
1	C	0.376181	0.675598	0.999995
2	O	0.41375	0.682165	0.999991
3	C	0.342304	0.631711	0.999998
4	C	0.348972	0.599363	0
5	N	0.391026	0.606927	0
6	C	0.298857	0.623921	3e-06
7	O	0.268408	0.586096	5e-06
8	C	0.288342	0.657673	6e-06
9	C	0.248363	0.649528	5e-06
10	N	0.215399	0.606491	0
11	C	0.323854	0.701209	4e-06
12	O	0.315493	0.730396	7e-06
13	C	0.367997	0.710954	0.999999
14	C	0.3993	0.750671	0.999998
15	N	0.392914	0.785928	0
16	H	0.323034	0.567872	1e-06
17	H	0.239873	0.673703	8e-06
18	H	0.431037	0.756343	0.999997
19	C	0.623819	0.324402	0.999995
20	O	0.58625	0.317835	0.999991
21	C	0.657696	0.368289	0.999998
22	C	0.651028	0.400637	0
23	N	0.608974	0.393073	0
24	C	0.701143	0.376079	3e-06
25	O	0.731592	0.413904	5e-06
26	C	0.711658	0.342327	6e-06
27	C	0.751637	0.350472	5e-06
28	N	0.784601	0.393509	0
29	C	0.676146	0.298791	4e-06
30	O	0.684507	0.269604	7e-06
31	C	0.632003	0.289046	0.999999
32	C	0.6007	0.249329	0.999998
33	N	0.607086	0.214072	0
34	H	0.676966	0.432128	1e-06
35	H	0.760127	0.326297	8e-06
36	H	0.568963	0.243657	0.999997
37	C	0.583242	0.418322	0
38	C	0.577288	0.424369	0.190542
39	N	0.556401	0.444853	0.247412
40	C	0.541281	0.459465	0.106191
41	C	0.518506	0.481803	0.164612
42	C	0.511999	0.488208	0.348215
43	C	0.48793	0.511823	0.361059
44	C	0.481527	0.518092	0.15387
45	C	0.45892	0.540284	0.097193
46	N	0.444351	0.554538	0.241527
47	C	0.423317	0.57519	0.189184
48	C	0.416758	0.581678	0
49	N	0.431064	0.567681	0.85472
50	C	0.452083	0.547044	0.907611
51	C	0.49935	0.500591	0.044885
52	C	0.547557	0.453095	0.915275
53	N	0.568448	0.432608	0.857827
54	H	0.589125	0.412938	0.305058
55	H	0.52244	0.477981	0.471822
56	H	0.457634	0.492896	0.435314
57	H	0.506867	0.541905	0.435264
58	H	0.41187	0.586388	0.306197
59	H	0.463347	0.536029	0.789244
60	H	0.499833	0.500112	0.890832
61	H	0.535928	0.46431	0.799148
62	C	0.581017	0.163139	0
63	C	0.574984	0.151251	0.190542
64	N	0.554555	0.110272	0.247412
65	C	0.539984	0.080823	0.106191
66	C	0.517705	0.036137	0.164612
67	C	0.511317	0.023348	0.348215
68	C	0.487765	0.976116	0.361059
69	C	0.481512	0.963563	0.15387
70	C	0.45938	0.919189	0.097193
71	N	0.445164	0.89064	0.241527
72	C	0.424567	0.849349	0.189184
73	C	0.418096	0.836426	0
74	N	0.432055	0.86446	0.85472
75	C	0.452638	0.905722	0.907611
76	C	0.498967	0.998553	0.044885
77	C	0.546338	0.09335	0.915275
78	N	0.566771	0.134335	0.857827
79	H	0.586383	0.174298	0.305058
80	H	0.521517	0.04382	0.471822
81	H	0.506998	0.964967	0.435314
82	H	0.457407	0.964965	0.435264
83	H	0.4134	0.826919	0.306197
84	H	0.463622	0.927789	0.789244
85	H	0.499445	0.999506	0.890832
86	H	0.535154	0.070722	0.799148
87	C	0.83508	0.417885	0
88	C	0.847067	0.423726	0.190542
89	N	0.888383	0.444221	0.247412
90	C	0.918074	0.459058	0.106191
91	C	0.963128	0.481406	0.164612
92	C	0.976023	0.48779	0.348215
93	C	0.023644	0.511407	0.361059
94	C	0.0363	0.51769	0.15387
95	C	0.081039	0.539872	0.097193
96	N	0.109824	0.554168	0.241527
97	C	0.151455	0.574806	0.189184
98	C	0.164485	0.581242	0
99	N	0.13622	0.567205	0.85472
100	C	0.094618	0.54658	0.907611
101	C	0.001022	0.500202	0.044885
102	C	0.905443	0.452901	0.915275
103	N	0.864121	0.432403	0.857827
104	H	0.823831	0.41211	0.305058
105	H	0.955382	0.477545	0.471822
106	H	0.034707	0.541483	0.435314
107	H	0.035065	0.492476	0.435264
108	H	0.174069	0.586039	0.306197
109	H	0.07237	0.535528	0.789244
110	H	6.1e-05	0.499728	0.890832
111	H	0.928257	0.464314	0.799148
