data_C96H48N6O6S12_2023-05-11_08:46:40
#******************************************
#
# CIF file created by Zeo++
# Zeo++ is an open source package to
# analyze microporous materials
#
#*******************************************

_cell_length_a		52.3891   
_cell_length_b		52.6876   
_cell_length_c		7   
_cell_angle_alpha		90   
_cell_angle_beta		90   
_cell_angle_gamma		119.753   

_symmetry_space_group_name_H-M		'P1'
_symmetry_Int_Tables_number		1
_symmetry_cell_setting		Monoclinic

loop_
_symmetry_equiv_pos_as_xyz
'+x,+y,+z'

loop_
_atom_site_label
_atom_site_type_symbol
_atom_site_fract_x
_atom_site_fract_y
_atom_site_fract_z
1	C	0.362919	0.672853	0.999995
2	O	0.388857	0.677402	0.999991
3	C	0.339471	0.642454	0.999998
4	C	0.344023	0.620047	0
5	N	0.373058	0.625287	0
6	C	0.309474	0.637058	3e-06
7	O	0.288401	0.610857	5e-06
8	C	0.302269	0.660437	6e-06
9	C	0.274664	0.654795	5e-06
10	N	0.251848	0.624985	0
11	C	0.326845	0.690593	4e-06
12	O	0.321119	0.71081	7e-06
13	C	0.357325	0.697343	0.999999
14	C	0.37899	0.724854	0.999998
15	N	0.374637	0.749275	0
16	H	0.326073	0.598234	1e-06
17	H	0.268842	0.67154	8e-06
18	H	0.400902	0.728783	0.999997
19	C	0.637081	0.327147	0.999995
20	O	0.611143	0.322598	0.999991
21	C	0.660529	0.357546	0.999998
22	C	0.655977	0.379953	0
23	N	0.626942	0.374713	0
24	C	0.690526	0.362942	3e-06
25	O	0.711599	0.389143	5e-06
26	C	0.697731	0.339563	6e-06
27	C	0.725336	0.345205	5e-06
28	N	0.748152	0.375015	0
29	C	0.673155	0.309407	4e-06
30	O	0.678881	0.28919	7e-06
31	C	0.642675	0.302657	0.999999
32	C	0.62101	0.275146	0.999998
33	N	0.625363	0.250725	0
34	H	0.673927	0.401766	1e-06
35	H	0.731158	0.32846	8e-06
36	H	0.599098	0.271217	0.999997
37	C	0.390778	0.607798	0
38	C	0.399648	0.599053	0.159031
39	C	0.414965	0.583933	0.107545
40	C	0.416987	0.581925	0.911951
41	C	0.43259	0.566518	0.81085
42	C	0.43432	0.564798	0.615788
43	S	0.4525	0.546849	0.55027
44	C	0.458656	0.540789	0.783517
45	C	0.474719	0.524938	0.830018
46	C	0.485771	0.514029	0.689068
47	C	0.500839	0.499158	0.736833
48	C	0.505413	0.494648	0.927957
49	C	0.520529	0.47973	0.978478
50	C	0.525272	0.475053	0.169983
51	C	0.541334	0.459201	0.216484
52	C	0.55342	0.447273	0.093587
53	C	0.567403	0.433475	0.189151
54	C	0.583009	0.418072	0.088049
55	C	0.585037	0.41607	0.892456
56	C	0.600356	0.400952	0.84097
57	C	0.609222	0.392202	0
58	S	0.59957	0.401729	0.207247
59	C	0.565667	0.435188	0.384213
60	S	0.547483	0.453133	0.449732
61	C	0.51422	0.485962	0.310933
62	C	0.499151	0.500833	0.263168
63	C	0.494578	0.505343	0.072045
64	C	0.479462	0.52026	0.021523
65	C	0.446575	0.552722	0.906414
66	S	0.400424	0.598265	0.792753
67	H	0.39555	0.603107	0.304408
68	H	0.423896	0.575124	0.210716
69	H	0.425856	0.573146	0.50651
70	H	0.482995	0.516767	0.537945
71	H	0.508965	0.491139	0.622048
72	H	0.528627	0.471737	0.863625
73	H	0.552324	0.448355	0.939795
74	H	0.576109	0.424881	0.789285
75	H	0.604459	0.396902	0.695592
76	H	0.574128	0.426839	0.493491
77	H	0.516996	0.483225	0.462057
78	H	0.491027	0.508852	0.377955
79	H	0.471363	0.528253	0.136377
80	H	0.447677	0.551645	0.060207
81	C	0.392095	0.784254	0
82	C	0.400823	0.801753	0.159031
83	C	0.415916	0.83199	0.107545
84	C	0.41792	0.835994	0.911951
85	C	0.433298	0.8668	0.81085
86	C	0.435015	0.870227	0.615788
87	S	0.452931	0.906118	0.55027
88	C	0.45898	0.918255	0.783517
89	C	0.474802	0.94996	0.830018
90	C	0.485691	0.971776	0.689068
91	C	0.500535	0.001519	0.736833
92	C	0.505037	0.010543	0.927957
93	C	0.519927	0.04038	0.978478
94	C	0.524596	0.049739	0.169983
95	C	0.540418	0.081443	0.216484
96	C	0.552324	0.105299	0.093587
97	C	0.566097	0.132898	0.189151
98	C	0.581472	0.163704	0.088049
99	C	0.583471	0.167708	0.892456
100	C	0.598561	0.197945	0.84097
101	C	0.607294	0.215444	0
102	S	0.597784	0.196391	0.207247
103	C	0.564387	0.129471	0.384213
104	S	0.546475	0.09358	0.449732
105	C	0.513706	0.027922	0.310933
106	C	0.498863	0.998179	0.263168
107	C	0.494361	0.989155	0.072045
108	C	0.479471	0.959318	0.021523
109	C	0.447069	0.894399	0.906414
110	S	0.40161	0.803307	0.792753
111	H	0.396777	0.793654	0.304408
112	H	0.424708	0.849614	0.210716
113	H	0.426683	0.853526	0.50651
114	H	0.482958	0.966299	0.537945
115	H	0.508539	0.017558	0.622048
116	H	0.527905	0.056366	0.863625
117	H	0.551244	0.103135	0.939795
118	H	0.574675	0.150084	0.789285
119	H	0.602603	0.206044	0.695592
120	H	0.572721	0.146172	0.493491
121	H	0.516439	0.033399	0.462057
122	H	0.490858	0.98214	0.377955
123	H	0.471493	0.943333	0.136377
124	H	0.448144	0.896563	0.060207
125	C	0.21667	0.607495	0
126	C	0.199072	0.598741	0.159031
127	C	0.168663	0.583624	0.107545
128	C	0.164636	0.581628	0.911951
129	C	0.133655	0.566228	0.81085
130	C	0.130208	0.564521	0.615788
131	S	0.094113	0.546579	0.55027
132	C	0.081907	0.540502	0.783517
133	C	0.050022	0.524649	0.830018
134	C	0.028081	0.513741	0.689068
135	C	0.998169	0.498869	0.736833
136	C	0.989094	0.494356	0.927957
137	C	0.959088	0.479437	0.978478
138	C	0.949676	0.474756	0.169983
139	C	0.917791	0.458902	0.216484
140	C	0.893799	0.446974	0.093587
141	C	0.866044	0.433174	0.189151
142	C	0.835062	0.417771	0.088049
143	C	0.831036	0.415769	0.892456
144	C	0.800627	0.400651	0.84097
145	C	0.783028	0.3919	0
146	S	0.802189	0.401426	0.207247
147	C	0.86949	0.434887	0.384213
148	S	0.905585	0.452833	0.449732
149	C	0.971617	0.485663	0.310933
150	C	0.001529	0.500535	0.263168
151	C	0.010604	0.505049	0.072045
152	C	0.04061	0.519968	0.021523
153	C	0.105899	0.552426	0.906414
154	S	0.197509	0.597975	0.792753
155	H	0.207217	0.602786	0.304408
156	H	0.150939	0.574809	0.210716
157	H	0.147004	0.572875	0.50651
158	H	0.03359	0.516481	0.537945
159	H	0.98204	0.49085	0.622048
160	H	0.943011	0.471444	0.863625
161	H	0.895976	0.448056	0.939795
162	H	0.848759	0.424581	0.789285
163	H	0.792482	0.396601	0.695592
164	H	0.852694	0.426536	0.493491
165	H	0.966108	0.482923	0.462057
166	H	0.017659	0.508554	0.377955
167	H	0.056687	0.527961	0.136377
168	H	0.103723	0.551339	0.060207
