data_C120H60N6O6S18_2023-05-15_13:31:48
#******************************************
#
# CIF file created by Zeo++
# Zeo++ is an open source package to
# analyze microporous materials
#
#*******************************************

_cell_length_a		61.3539   
_cell_length_b		61.6523   
_cell_length_c		7   
_cell_angle_alpha		90   
_cell_angle_beta		90   
_cell_angle_gamma		119.789   

_symmetry_space_group_name_H-M		'P1'
_symmetry_Int_Tables_number		1
_symmetry_cell_setting		Monoclinic

loop_
_symmetry_equiv_pos_as_xyz
'+x,+y,+z'

loop_
_atom_site_label
_atom_site_type_symbol
_atom_site_fract_x
_atom_site_fract_y
_atom_site_fract_z
1	C	0.3586	0.671955	0.999995
2	O	0.380751	0.675844	0.999991
3	C	0.338559	0.645967	0.999998
4	C	0.342432	0.626812	0
5	N	0.367228	0.631291	0
6	C	0.312942	0.641354	3e-06
7	O	0.294931	0.618955	5e-06
8	C	0.306804	0.661341	6e-06
9	C	0.283229	0.656518	5e-06
10	N	0.263729	0.631033	0
11	C	0.327808	0.687121	4e-06
12	O	0.322931	0.704405	7e-06
13	C	0.353838	0.692892	0.999999
14	C	0.372355	0.716411	0.999998
15	N	0.368654	0.737289	0
16	H	0.327091	0.608164	1e-06
17	H	0.278268	0.670833	8e-06
18	H	0.391068	0.71977	0.999997
19	C	0.6414	0.328045	0.999995
20	O	0.619249	0.324156	0.999991
21	C	0.661441	0.354033	0.999998
22	C	0.657568	0.373188	0
23	N	0.632772	0.368709	0
24	C	0.687058	0.358646	3e-06
25	O	0.705069	0.381045	5e-06
26	C	0.693196	0.338659	6e-06
27	C	0.716771	0.343482	5e-06
28	N	0.736271	0.368967	0
29	C	0.672192	0.312879	4e-06
30	O	0.677069	0.295595	7e-06
31	C	0.646162	0.307108	0.999999
32	C	0.627645	0.283589	0.999998
33	N	0.631346	0.262711	0
34	H	0.672909	0.391836	1e-06
35	H	0.721732	0.329167	8e-06
36	H	0.608932	0.28023	0.999997
37	C	0.382348	0.616339	0
38	C	0.372802	0.620804	0.162654
39	S	0.371243	0.601545	0.344098
40	C	0.383499	0.587108	0.20447
41	C	0.387435	0.567393	0.279666
42	C	0.379396	0.555004	0.452504
43	C	0.38672	0.536581	0.479953
44	C	0.400441	0.535259	0.328458
45	C	0.410433	0.51849	0.310865
46	C	0.400056	0.494604	0.385728
47	C	0.414617	0.482966	0.344753
48	C	0.435949	0.49836	0.24135
49	C	0.455647	0.49332	0.173603
50	C	0.455309	0.4873	0.979874
51	C	0.473003	0.481727	0.907672
52	C	0.491106	0.481916	0.028945
53	C	0.49219	0.487745	0.225544
54	C	0.510493	0.487844	0.351545
55	C	0.529395	0.481441	0.288232
56	C	0.554003	0.49719	0.236365
57	C	0.566733	0.483832	0.189462
58	C	0.551595	0.458156	0.206053
59	C	0.558248	0.438955	0.172761
60	C	0.542384	0.413412	0.159074
61	C	0.555508	0.40002	0.128754
62	C	0.581229	0.415437	0.119491
63	C	0.599735	0.407704	0.089429
64	C	0.595629	0.385663	0.004697
65	C	0.617652	0.383661	0
66	C	0.638092	0.403753	0.079929
67	S	0.630568	0.425345	0.161249
68	S	0.588932	0.446066	0.146801
69	S	0.52193	0.450804	0.279591
70	C	0.511121	0.494318	0.544444
71	C	0.493817	0.500496	0.615522
72	C	0.475648	0.500173	0.4944
73	C	0.474207	0.493779	0.298737
74	S	0.438022	0.526531	0.193651
75	S	0.403866	0.556228	0.154054
76	C	0.388516	0.597171	0.021764
77	H	0.366659	0.634282	0.184749
78	H	0.368623	0.558764	0.556572
79	H	0.382226	0.525061	0.606824
80	H	0.382588	0.485627	0.464978
81	H	0.409711	0.46424	0.389192
82	H	0.441099	0.486912	0.884605
83	H	0.472717	0.477135	0.757447
84	H	0.504629	0.477404	0.966796
85	H	0.562614	0.517396	0.233752
86	H	0.586255	0.49294	0.145789
87	H	0.522116	0.404406	0.170587
88	H	0.546238	0.379857	0.116824
89	H	0.577625	0.371733	0.948053
90	H	0.657026	0.406979	0.094899
91	H	0.525187	0.494481	0.640089
92	H	0.494394	0.505543	0.764928
93	H	0.462476	0.505243	0.555563
94	H	0.396254	0.591018	0.908814
95	C	0.383582	0.767192	0
96	C	0.379146	0.753267	0.162654
97	S	0.398464	0.770896	0.344098
98	C	0.412888	0.797442	0.20447
99	C	0.43264	0.820982	0.279666
100	C	0.445097	0.825335	0.452504
101	C	0.46354	0.850953	0.479953
102	C	0.464807	0.865894	0.328458
103	C	0.481579	0.892514	0.310865
104	C	0.505575	0.905994	0.385728
105	C	0.517182	0.932042	0.344753
106	C	0.501656	0.937898	0.24135
107	C	0.506626	0.962478	0.173603
108	C	0.512664	0.968136	0.979874
109	C	0.518177	0.991257	0.907672
110	C	0.51791	0.009046	0.028945
111	C	0.51206	0.004318	0.225544
112	C	0.511883	0.022395	0.351545
113	C	0.518223	0.047541	0.288232
114	C	0.502327	0.056297	0.236365
115	C	0.515667	0.082239	0.189462
116	C	0.541478	0.092773	0.206053
117	C	0.560703	0.118499	0.172761
118	C	0.586384	0.128181	0.159074
119	C	0.599756	0.154548	0.128754
120	C	0.584188	0.164739	0.119491
121	C	0.591864	0.190817	0.089429
122	C	0.613982	0.208686	0.004697
123	C	0.615896	0.23255	0
124	C	0.595662	0.232841	0.079929
125	S	0.574043	0.203869	0.161249
126	S	0.553442	0.141889	0.146801
127	S	0.548977	0.070635	0.279591
128	C	0.505389	0.016572	0.544444
129	C	0.499268	0.993236	0.615522
130	C	0.499669	0.975516	0.4944
131	C	0.506087	0.980452	0.298737
132	S	0.473399	0.911906	0.193651
133	S	0.443766	0.848416	0.154054
134	C	0.402777	0.792404	0.021764
135	H	0.365657	0.733746	0.184749
136	H	0.441373	0.810892	0.556572
137	H	0.475111	0.857962	0.606824
138	H	0.514651	0.897587	0.464978
139	H	0.535981	0.945818	0.389192
140	H	0.513114	0.954412	0.884605
141	H	0.522782	0.995545	0.757447
142	H	0.522377	0.026968	0.966796
143	H	0.48203	0.044728	0.233752
144	H	0.506452	0.092557	0.145789
145	H	0.595501	0.117021	0.170587
146	H	0.620013	0.165419	0.116824
147	H	0.628027	0.204678	0.948053
148	H	0.592347	0.248432	0.094899
149	H	0.505166	0.030378	0.640089
150	H	0.494205	0.988785	0.764928
151	H	0.494641	0.957388	0.555563
152	H	0.408913	0.806215	0.908814
153	C	0.23368	0.616081	0
154	C	0.247662	0.625542	0.162654
155	S	0.229902	0.627172	0.344098
156	C	0.203223	0.615063	0.20447
157	C	0.179534	0.611237	0.279666
158	C	0.175116	0.619273	0.452504
159	C	0.149351	0.612079	0.479953
160	C	0.134363	0.598459	0.328458
161	C	0.107598	0.588608	0.310865
162	C	0.09398	0.599014	0.385728
163	C	0.067811	0.584604	0.344753
164	C	0.062005	0.563354	0.24135
165	C	0.037337	0.543815	0.173603
166	C	0.031638	0.544176	0.979874
167	C	0.008431	0.526629	0.907672
168	C	0.990594	0.508651	0.028945
169	C	0.99536	0.507549	0.225544
170	C	0.977234	0.489373	0.351545
171	C	0.951992	0.47063	0.288232
172	C	0.94328	0.446126	0.236365
173	C	0.91721	0.433541	0.189462
174	C	0.906537	0.448683	0.206053
175	C	0.88066	0.442158	0.172761
176	C	0.870842	0.45802	0.159074
177	C	0.844346	0.445045	0.128754
178	C	0.834193	0.419436	0.119491
179	C	0.808011	0.401092	0.089429
180	C	0.789999	0.405263	0.004697
181	C	0.766062	0.383402	0
182	C	0.765856	0.363018	0.079929
183	S	0.795	0.370398	0.161249
184	S	0.857236	0.411657	0.146801
185	S	0.928704	0.478174	0.279591
186	C	0.9831	0.488722	0.544444
187	C	0.006526	0.50588	0.615522
188	C	0.024293	0.523923	0.4944
189	C	0.019316	0.525381	0.298737
190	S	0.088189	0.561176	0.193651
191	S	0.151978	0.594968	0.154054
192	C	0.208318	0.610038	0.021764
193	H	0.267294	0.631585	0.184749
194	H	0.189614	0.629956	0.556572
195	H	0.142273	0.61659	0.606824
196	H	0.102371	0.616399	0.464978
197	H	0.053917	0.589555	0.389192
198	H	0.045397	0.558289	0.884605
199	H	0.004111	0.526933	0.757447
200	H	0.972603	0.495241	0.966796
201	H	0.954967	0.437489	0.233752
202	H	0.906903	0.414116	0.145789
203	H	0.881993	0.478186	0.170587
204	H	0.833359	0.454336	0.116824
205	H	0.793959	0.423202	0.948053
206	H	0.750237	0.344202	0.094899
207	H	0.969257	0.474753	0.640089
208	H	0.011011	0.505285	0.764928
209	H	0.042492	0.536982	0.555563
210	H	0.194442	0.602379	0.908814
