data_C66H30N6O6S12_2023-05-27_05:35:55
#******************************************
#
# CIF file created by Zeo++
# Zeo++ is an open source package to
# analyze microporous materials
#
#*******************************************

_cell_length_a		38.7229   
_cell_length_b		39.0215   
_cell_length_c		7   
_cell_angle_alpha		90   
_cell_angle_beta		90   
_cell_angle_gamma		119.666   

_symmetry_space_group_name_H-M		'P1'
_symmetry_Int_Tables_number		1
_symmetry_cell_setting		Monoclinic

loop_
_symmetry_equiv_pos_as_xyz
'+x,+y,+z'

loop_
_atom_site_label
_atom_site_type_symbol
_atom_site_fract_x
_atom_site_fract_y
_atom_site_fract_z
1	C	0.373345	0.675012	0.999995
2	O	0.408427	0.681149	0.999991
3	C	0.341694	0.634002	0.999998
4	C	0.347906	0.603774	0
5	N	0.387176	0.610843	0
6	C	0.301123	0.626723	3e-06
7	O	0.272675	0.591377	5e-06
8	C	0.29132	0.658262	6e-06
9	C	0.253987	0.650651	5e-06
10	N	0.223189	0.610435	0
11	C	0.324498	0.698944	4e-06
12	O	0.316703	0.726218	7e-06
13	C	0.365719	0.708051	0.999999
14	C	0.394965	0.745165	0.999998
15	N	0.389018	0.77811	0
16	H	0.323672	0.574348	1e-06
17	H	0.24607	0.673242	8e-06
18	H	0.424602	0.750465	0.999997
19	C	0.626655	0.324988	0.999995
20	O	0.591573	0.318851	0.999991
21	C	0.658306	0.365998	0.999998
22	C	0.652094	0.396226	0
23	N	0.612824	0.389157	0
24	C	0.698877	0.373277	3e-06
25	O	0.727325	0.408623	5e-06
26	C	0.70868	0.341738	6e-06
27	C	0.746013	0.349349	5e-06
28	N	0.776811	0.389565	0
29	C	0.675502	0.301056	4e-06
30	O	0.683297	0.273782	7e-06
31	C	0.634281	0.291949	0.999999
32	C	0.605035	0.254835	0.999998
33	N	0.610982	0.22189	0
34	H	0.676328	0.425652	1e-06
35	H	0.75393	0.326758	8e-06
36	H	0.575398	0.249535	0.999997
37	C	0.588809	0.412751	0
38	C	0.572088	0.429177	0.885796
39	C	0.55414	0.44681	0.997658
40	C	0.558098	0.442922	0.191364
41	C	0.541445	0.459284	0.351398
42	C	0.545757	0.455049	0.543576
43	S	0.52458	0.475855	0.680783
44	C	0.509006	0.491153	0.484756
45	C	0.487249	0.512527	0.498652
46	C	0.473733	0.525807	0.347994
47	C	0.453224	0.545955	0.407688
48	C	0.434534	0.564316	0.269604
49	C	0.414738	0.583765	0.328273
50	C	0.401093	0.597169	0.170679
51	C	0.411191	0.587249	0
52	S	0.436452	0.562433	0.025669
53	C	0.451637	0.547514	0.603566
54	S	0.474557	0.524997	0.712681
55	C	0.520288	0.480069	0.318207
56	S	0.583363	0.418102	0.23615
57	H	0.572481	0.428791	0.731126
58	H	0.539213	0.461475	0.93661
59	H	0.560284	0.440778	0.612423
60	H	0.478346	0.521275	0.199736
61	H	0.409983	0.588435	0.476154
62	H	0.384896	0.613081	0.183902
63	H	0.438242	0.560672	0.690565
64	H	0.513597	0.486641	0.177393
65	C	0.586618	0.174295	0
66	C	0.570232	0.141441	0.885796
67	C	0.552643	0.106176	0.997658
68	C	0.556521	0.113952	0.191364
69	C	0.5402	0.081229	0.351398
70	C	0.544426	0.089702	0.543576
71	S	0.523671	0.04809	0.680783
72	C	0.508411	0.017491	0.484756
73	C	0.48709	0.974742	0.498652
74	C	0.473843	0.948184	0.347994
75	C	0.453745	0.907887	0.407688
76	C	0.435429	0.871164	0.269604
77	C	0.41603	0.832267	0.328273
78	C	0.402659	0.805458	0.170679
79	C	0.412554	0.825298	0
80	S	0.437308	0.874931	0.025669
81	C	0.452191	0.904769	0.603566
82	S	0.474651	0.949803	0.712681
83	C	0.519467	0.039658	0.318207
84	S	0.58128	0.163593	0.23615
85	H	0.570618	0.142214	0.731126
86	H	0.538016	0.076847	0.93661
87	H	0.558661	0.118244	0.612423
88	H	0.478363	0.957247	0.199736
89	H	0.411371	0.822925	0.476154
90	H	0.386786	0.773633	0.183902
91	H	0.439065	0.878451	0.690565
92	H	0.512911	0.026514	0.177393
93	C	0.823956	0.412343	0
94	C	0.857063	0.42877	0.885796
95	C	0.892599	0.446403	0.997658
96	C	0.884763	0.442514	0.191364
97	C	0.917738	0.458875	0.351398
98	C	0.9092	0.454639	0.543576
99	S	0.951132	0.475444	0.680783
100	C	0.981966	0.490744	0.484756
101	C	0.025044	0.512119	0.498652
102	C	0.051806	0.525398	0.347994
103	C	0.092413	0.545547	0.407688
104	C	0.129419	0.563908	0.269604
105	C	0.168615	0.583357	0.328273
106	C	0.195631	0.596762	0.170679
107	C	0.175637	0.586841	0
108	S	0.125622	0.562024	0.025669
109	C	0.095555	0.547106	0.603566
110	S	0.050175	0.524589	0.712681
111	C	0.959628	0.479661	0.318207
112	S	0.83474	0.417693	0.23615
113	H	0.856284	0.428384	0.731126
114	H	0.922154	0.461067	0.93661
115	H	0.880438	0.440367	0.612423
116	H	0.042674	0.520866	0.199736
117	H	0.178029	0.588029	0.476154
118	H	0.2277	0.612675	0.183902
119	H	0.122076	0.560266	0.690565
120	H	0.972874	0.486234	0.177393
