data_C66H30N6O6S12_2023-05-13_01:46:02
#******************************************
#
# CIF file created by Zeo++
# Zeo++ is an open source package to
# analyze microporous materials
#
#*******************************************

_cell_length_a		41.0663   
_cell_length_b		41.3649   
_cell_length_c		7   
_cell_angle_alpha		90   
_cell_angle_beta		90   
_cell_angle_gamma		119.685   

_symmetry_space_group_name_H-M		'P1'
_symmetry_Int_Tables_number		1
_symmetry_cell_setting		Monoclinic

loop_
_symmetry_equiv_pos_as_xyz
'+x,+y,+z'

loop_
_atom_site_label
_atom_site_type_symbol
_atom_site_fract_x
_atom_site_fract_y
_atom_site_fract_z
1	C	0.371065	0.674541	0.999995
2	O	0.404147	0.680331	0.999991
3	C	0.341205	0.635847	0.999998
4	C	0.347052	0.607326	0
5	N	0.384083	0.613996	0
6	C	0.302947	0.628979	3e-06
7	O	0.276109	0.595629	5e-06
8	C	0.293714	0.658737	6e-06
9	C	0.258509	0.651556	5e-06
10	N	0.229454	0.613611	0
11	C	0.325014	0.697122	4e-06
12	O	0.317674	0.722855	7e-06
13	C	0.363886	0.705714	0.999999
14	C	0.391477	0.740732	0.999998
15	N	0.385881	0.771816	0
16	H	0.32419	0.579561	1e-06
17	H	0.251052	0.67287	8e-06
18	H	0.419424	0.745732	0.999997
19	C	0.628935	0.325459	0.999995
20	O	0.595853	0.319669	0.999991
21	C	0.658795	0.364153	0.999998
22	C	0.652948	0.392674	0
23	N	0.615917	0.386004	0
24	C	0.697053	0.371021	3e-06
25	O	0.723891	0.404371	5e-06
26	C	0.706286	0.341263	6e-06
27	C	0.741491	0.348444	5e-06
28	N	0.770546	0.386389	0
29	C	0.674986	0.302878	4e-06
30	O	0.682326	0.277145	7e-06
31	C	0.636114	0.294286	0.999999
32	C	0.608523	0.259268	0.999998
33	N	0.614119	0.228184	0
34	H	0.67581	0.420439	1e-06
35	H	0.748948	0.32713	8e-06
36	H	0.580576	0.254268	0.999997
37	C	0.59328	0.408266	0
38	C	0.59846	0.403173	0.188433
39	C	0.582214	0.41915	0.309799
40	C	0.565251	0.435831	0.209739
41	C	0.546338	0.45443	0.290739
42	C	0.541706	0.458985	0.482679
43	C	0.521779	0.478582	0.515745
44	C	0.511304	0.488884	0.34888
45	C	0.490817	0.509032	0.33326
46	C	0.477976	0.521659	0.48235
47	C	0.458761	0.540556	0.419538
48	C	0.457049	0.542239	0.222802
49	C	0.439872	0.559132	0.109378
50	C	0.438153	0.560824	0.911834
51	C	0.418946	0.579713	0.848324
52	C	0.40672	0.591734	0
53	S	0.417772	0.580864	0.214049
54	S	0.479041	0.520613	0.118784
55	S	0.526138	0.474296	0.154772
56	S	0.569602	0.431552	0.967273
57	H	0.61296	0.388913	0.2384
58	H	0.583131	0.418248	0.464225
59	H	0.552039	0.448824	0.596882
60	H	0.515604	0.484655	0.657311
61	H	0.48196	0.51774	0.631706
62	H	0.446843	0.552275	0.516877
63	H	0.450105	0.549072	0.814848
64	H	0.414611	0.583976	0.699941
65	C	0.591129	0.183276	0
66	C	0.59621	0.193464	0.188433
67	C	0.58027	0.161509	0.309799
68	C	0.563628	0.128146	0.209739
69	C	0.545073	0.090948	0.290739
70	C	0.540529	0.081838	0.482679
71	C	0.520978	0.042644	0.515745
72	C	0.5107	0.02204	0.34888
73	C	0.490599	0.981745	0.33326
74	C	0.478001	0.95649	0.48235
75	C	0.459149	0.918697	0.419538
76	C	0.45747	0.91533	0.222802
77	C	0.440616	0.881545	0.109378
78	C	0.438928	0.878162	0.911834
79	C	0.420084	0.840384	0.848324
80	C	0.408091	0.81634	0
81	S	0.418935	0.838079	0.214049
82	S	0.479045	0.958584	0.118784
83	S	0.525253	0.051216	0.154772
84	S	0.567897	0.136704	0.967273
85	H	0.610436	0.221983	0.2384
86	H	0.58117	0.163313	0.464225
87	H	0.550666	0.102161	0.596882
88	H	0.514919	0.030498	0.657311
89	H	0.481911	0.964327	0.631706
90	H	0.447457	0.895257	0.516877
91	H	0.450653	0.901668	0.814848
92	H	0.415831	0.831859	0.699941
93	C	0.815009	0.407881	0
94	C	0.804747	0.402787	0.188433
95	C	0.836934	0.418764	0.309799
96	C	0.870539	0.435446	0.209739
97	C	0.908007	0.454045	0.290739
98	C	0.917183	0.4586	0.482679
99	C	0.956661	0.478197	0.515745
100	C	0.977415	0.488499	0.34888
101	C	0.018002	0.508646	0.33326
102	C	0.043441	0.521274	0.48235
103	C	0.081508	0.540171	0.419538
104	C	0.084899	0.541854	0.222802
105	C	0.11893	0.558747	0.109378
106	C	0.122337	0.560437	0.911834
107	C	0.160388	0.579326	0.848324
108	C	0.184607	0.591349	0
109	S	0.162711	0.580481	0.214049
110	S	0.041332	0.520227	0.118784
111	S	0.948027	0.473911	0.154772
112	S	0.861919	0.431167	0.967273
113	H	0.776022	0.388527	0.2384
114	H	0.835117	0.417862	0.464225
115	H	0.896713	0.448439	0.596882
116	H	0.968895	0.48427	0.657311
117	H	0.035547	0.517356	0.631706
118	H	0.105117	0.551891	0.516877
119	H	0.09866	0.548683	0.814848
120	H	0.168976	0.583588	0.699941
