data_C48H30N12O6_2023-05-10_22:34:43
#******************************************
#
# CIF file created by Zeo++
# Zeo++ is an open source package to
# analyze microporous materials
#
#*******************************************

_cell_length_a		28.6732   
_cell_length_b		28.972   
_cell_length_c		7   
_cell_angle_alpha		90   
_cell_angle_beta		90   
_cell_angle_gamma		119.55   

_symmetry_space_group_name_H-M		'P1'
_symmetry_Int_Tables_number		1
_symmetry_cell_setting		Monoclinic

loop_
_symmetry_equiv_pos_as_xyz
'+x,+y,+z'

loop_
_atom_site_label
_atom_site_type_symbol
_atom_site_fract_x
_atom_site_fract_y
_atom_site_fract_z
1	C	0.387342	0.677894	0.999995
2	O	0.4347	0.68615	0.999991
3	C	0.344727	0.622723	0.999998
4	C	0.353212	0.582057	0
5	N	0.406223	0.591566	0
6	C	0.28996	0.61293	3e-06
7	O	0.251653	0.565378	5e-06
8	C	0.276621	0.65536	6e-06
9	C	0.226227	0.645121	5e-06
10	N	0.184762	0.591018	0
11	C	0.321299	0.710091	4e-06
12	O	0.310686	0.746783	7e-06
13	C	0.376938	0.722342	0.999999
14	C	0.416317	0.772272	0.999998
15	N	0.408182	0.816594	0
16	H	0.320578	0.542468	1e-06
17	H	0.215464	0.675512	8e-06
18	H	0.456324	0.779402	0.999997
19	C	0.612658	0.322106	0.999995
20	O	0.5653	0.31385	0.999991
21	C	0.655273	0.377277	0.999998
22	C	0.646788	0.417943	0
23	N	0.593777	0.408434	0
24	C	0.71004	0.38707	3e-06
25	O	0.748347	0.434622	5e-06
26	C	0.723379	0.34464	6e-06
27	C	0.773773	0.354879	5e-06
28	N	0.815238	0.408982	0
29	C	0.678701	0.289909	4e-06
30	O	0.689314	0.253217	7e-06
31	C	0.623062	0.277658	0.999999
32	C	0.583683	0.227728	0.999998
33	N	0.591818	0.183406	0
34	H	0.679422	0.457532	1e-06
35	H	0.784536	0.324488	8e-06
36	H	0.543676	0.220598	0.999997
37	C	0.438731	0.559825	0
38	C	0.464172	0.56749	0.172954
39	C	0.464708	0.519865	0.216171
40	C	0.486037	0.509682	0.384748
41	C	0.512264	0.48227	0.406557
42	C	0.529537	0.458456	0.265535
43	C	0.532823	0.413105	0.297086
44	N	0.55164	0.402054	0.132985
45	C	0.561269	0.440175	0
46	C	0.548531	0.476105	0.077493
47	C	0.438154	0.484493	0.070258
48	N	0.42325	0.509659	0.937805
49	H	0.480816	0.603316	0.258
50	H	0.479641	0.526476	0.514815
51	H	0.52249	0.47804	0.553021
52	H	0.523148	0.38756	0.420677
53	H	0.557926	0.370993	0.1131
54	H	0.552533	0.511165	0.00729
55	H	0.428663	0.443781	0.048692
56	H	0.403478	0.493662	0.814535
57	C	0.439817	0.880077	0
58	C	0.431876	0.897546	0.172954
59	C	0.479777	0.94527	0.216171
60	C	0.489827	0.976375	0.384748
61	C	0.517164	0.029379	0.406557
62	C	0.540962	0.069997	0.265535
63	C	0.58655	0.118175	0.297086
64	N	0.597496	0.147666	0.132985
65	C	0.559063	0.119376	0
66	C	0.523037	0.071221	0.077493
67	C	0.515597	0.95416	0.070258
68	N	0.490418	0.914538	0.937805
69	H	0.395689	0.878443	0.258
70	H	0.472992	0.95343	0.514815
71	H	0.521326	0.043646	0.553021
72	H	0.612332	0.133957	0.420677
73	H	0.628683	0.184639	0.1131
74	H	0.487734	0.04042	0.00729
75	H	0.556634	0.985153	0.048692
76	H	0.506687	0.910909	0.814535
77	C	0.120619	0.559276	0
78	C	0.103119	0.534142	0.172954
79	C	0.054682	0.534043	0.216171
80	C	0.023303	0.513121	0.384748
81	C	0.969739	0.487528	0.406557
82	C	0.928668	0.470725	0.265535
83	C	0.879794	0.467898	0.297086
84	N	0.85003	0.449458	0.132985
85	C	0.878835	0.439627	0
86	C	0.927598	0.451852	0.077493
87	C	0.045415	0.560525	0.070258
88	N	0.085499	0.574982	0.937805
89	H	0.122661	0.517419	0.258
90	H	0.046534	0.519271	0.514815
91	H	0.955351	0.477492	0.553021
92	H	0.863687	0.477661	0.420677
93	H	0.812558	0.443546	0.1131
94	H	0.9589	0.447592	0.00729
95	H	0.01387	0.570244	0.048692
96	H	0.089001	0.594606	0.814535
