data_C66H30N12O6S12_2023-05-11_09:02:43
#******************************************
#
# CIF file created by Zeo++
# Zeo++ is an open source package to
# analyze microporous materials
#
#*******************************************

_cell_length_a		25.3851   
_cell_length_b		25.684   
_cell_length_c		7   
_cell_angle_alpha		90   
_cell_angle_beta		90   
_cell_angle_gamma		119.492   

_symmetry_space_group_name_H-M		'P1'
_symmetry_Int_Tables_number		1
_symmetry_cell_setting		Monoclinic

loop_
_symmetry_equiv_pos_as_xyz
'+x,+y,+z'

loop_
_atom_site_label
_atom_site_type_symbol
_atom_site_fract_x
_atom_site_fract_y
_atom_site_fract_z
1	C	0.394323	0.679324	0.999995
2	O	0.447804	0.688632	0.999991
3	C	0.346261	0.617125	0.999998
4	C	0.355899	0.571279	0
5	N	0.415763	0.582	0
6	C	0.284413	0.606085	3e-06
7	O	0.241207	0.552476	5e-06
8	C	0.269289	0.65392	6e-06
9	C	0.212381	0.642377	5e-06
10	N	0.165617	0.581382	0
11	C	0.319682	0.715622	4e-06
12	O	0.307646	0.756987	7e-06
13	C	0.382513	0.729434	0.999999
14	C	0.426926	0.785724	0.999998
15	N	0.417679	0.835691	0
16	H	0.31909	0.526648	1e-06
17	H	0.200184	0.676639	8e-06
18	H	0.472106	0.793761	0.999997
19	C	0.605677	0.320676	0.999995
20	O	0.552196	0.311368	0.999991
21	C	0.653739	0.382875	0.999998
22	C	0.644101	0.428721	0
23	N	0.584237	0.418	0
24	C	0.715587	0.393915	3e-06
25	O	0.758793	0.447524	5e-06
26	C	0.730711	0.34608	6e-06
27	C	0.787619	0.357623	5e-06
28	N	0.834383	0.418618	0
29	C	0.680318	0.284378	4e-06
30	O	0.692354	0.243013	7e-06
31	C	0.617487	0.270566	0.999999
32	C	0.573074	0.214276	0.999998
33	N	0.582321	0.164309	0
34	H	0.68091	0.473352	1e-06
35	H	0.799816	0.323361	8e-06
36	H	0.527894	0.206239	0.999997
37	C	0.452524	0.546216	0
38	C	0.455683	0.537168	0.191672
39	C	0.509776	0.584134	0.274618
40	C	0.525147	0.583026	0.476425
41	C	0.576973	0.623859	0.569463
42	S	0.576311	0.600789	0.799549
43	C	0.507529	0.53682	0.757429
44	C	0.481157	0.493518	0.905784
45	C	0.446144	0.434258	0.879849
46	C	0.433114	0.404214	0.700456
47	N	0.468954	0.418294	0.550497
48	C	0.439281	0.381638	0.397244
49	C	0.470421	0.396195	0.211754
50	C	0.44823	0.365262	0.042836
51	S	0.49728	0.398686	0.855917
52	C	0.547476	0.453784	0
53	C	0.528917	0.447533	0.186575
54	C	0.382062	0.335453	0.436607
55	S	0.363872	0.339793	0.669569
56	N	0.484718	0.535682	0.587377
57	C	0.544258	0.62728	0.141612
58	S	0.511895	0.610432	0.918704
59	H	0.422165	0.498487	0.269387
60	H	0.614756	0.664463	0.515483
61	H	0.489505	0.510216	0.051582
62	H	0.426733	0.406567	0.005804
63	H	0.405564	0.325151	0.017253
64	H	0.554667	0.478495	0.299671
65	H	0.350291	0.300824	0.34291
66	H	0.587154	0.667621	0.161525
67	C	0.453327	0.90726	0
68	C	0.462403	0.919322	0.191672
69	C	0.414573	0.926027	0.274618
70	C	0.415531	0.94224	0.476425
71	C	0.373899	0.952788	0.569463
72	S	0.39713	0.974972	0.799549
73	C	0.462225	0.970651	0.757429
74	C	0.506084	0.987577	0.905784
75	C	0.566096	0.011804	0.879849
76	C	0.596472	0.028728	0.700456
77	N	0.581933	0.050036	0.550497
78	C	0.619136	0.057139	0.397244
79	C	0.604165	0.073352	0.211754
80	C	0.635529	0.082148	0.042836
81	S	0.601384	0.097299	0.855917
82	C	0.545407	0.092123	0
83	C	0.551889	0.08006	0.186575
84	C	0.666211	0.046586	0.436607
85	S	0.662027	0.024403	0.669569
86	N	0.463603	0.949346	0.587377
87	C	0.370789	0.917231	0.141612
88	S	0.388079	0.902082	0.918704
89	H	0.501683	0.924648	0.269387
90	H	0.33264	0.949751	0.515483
91	H	0.48919	0.979259	0.051582
92	H	0.594168	0.020124	0.005804
93	H	0.676342	0.079894	0.017253
94	H	0.520458	0.074735	0.299671
95	H	0.701395	0.04962	0.34291
96	H	0.329742	0.919483	0.161525
97	C	0.093208	0.545597	0
98	C	0.080974	0.542583	0.191672
99	C	0.074711	0.488911	0.274618
100	C	0.058381	0.473807	0.476425
101	C	0.048186	0.422427	0.569463
102	S	0.025618	0.423313	0.799549
103	C	0.029304	0.491602	0.757429
104	C	0.011819	0.517978	0.905784
105	C	0.986819	0.553011	0.879849
106	C	0.969473	0.566131	0.700456
107	N	0.948172	0.530744	0.550497
108	C	0.940643	0.560297	0.397244
109	C	0.924474	0.529526	0.211754
110	C	0.9153	0.551663	0.042836
111	S	0.900396	0.503089	0.855917
112	C	0.906176	0.453166	0
113	C	0.918253	0.47148	0.186575
114	C	0.950786	0.617034	0.436607
115	S	0.97316	0.634877	0.669569
116	N	0.050738	0.514045	0.587377
117	C	0.084012	0.454563	0.141612
118	S	0.099085	0.486559	0.918704
119	H	0.075212	0.575938	0.269387
120	H	0.051663	0.384859	0.515483
121	H	0.020364	0.509598	0.051582
122	H	0.978158	0.572382	0.005804
123	H	0.917153	0.594028	0.017253
124	H	0.923934	0.445843	0.299671
125	H	0.947374	0.64863	0.34291
126	H	0.082163	0.411969	0.161525
