data_C114H54N6O6S24_2023-05-15_06:58:34
#******************************************
#
# CIF file created by Zeo++
# Zeo++ is an open source package to
# analyze microporous materials
#
#*******************************************

_cell_length_a		68.7753   
_cell_length_b		69.0736   
_cell_length_c		7   
_cell_angle_alpha		90   
_cell_angle_beta		90   
_cell_angle_gamma		119.811   

_symmetry_space_group_name_H-M		'P1'
_symmetry_Int_Tables_number		1
_symmetry_cell_setting		Monoclinic

loop_
_symmetry_equiv_pos_as_xyz
'+x,+y,+z'

loop_
_atom_site_label
_atom_site_type_symbol
_atom_site_fract_x
_atom_site_fract_y
_atom_site_fract_z
1	C	0.355876	0.671388	0.999995
2	O	0.375638	0.67486	0.999991
3	C	0.337987	0.648187	0.999998
4	C	0.341434	0.631086	0
5	N	0.363556	0.635085	0
6	C	0.315132	0.644069	3e-06
7	O	0.299056	0.624072	5e-06
8	C	0.309664	0.661912	6e-06
9	C	0.288632	0.657606	5e-06
10	N	0.271225	0.634854	0
11	C	0.328413	0.684928	4e-06
12	O	0.324069	0.700358	7e-06
13	C	0.351637	0.69008	0.999999
14	C	0.368165	0.711077	0.999998
15	N	0.364871	0.729715	0
16	H	0.327741	0.614437	1e-06
17	H	0.284212	0.670386	8e-06
18	H	0.38486	0.714075	0.999997
19	C	0.644124	0.328612	0.999995
20	O	0.624362	0.32514	0.999991
21	C	0.662013	0.351813	0.999998
22	C	0.658566	0.368914	0
23	N	0.636444	0.364915	0
24	C	0.684868	0.355931	3e-06
25	O	0.700944	0.375928	5e-06
26	C	0.690336	0.338088	6e-06
27	C	0.711368	0.342394	5e-06
28	N	0.728775	0.365146	0
29	C	0.671587	0.315072	4e-06
30	O	0.675931	0.299642	7e-06
31	C	0.648363	0.30992	0.999999
32	C	0.631835	0.288923	0.999998
33	N	0.635129	0.270285	0
34	H	0.672259	0.385563	1e-06
35	H	0.715788	0.329614	8e-06
36	H	0.61514	0.285925	0.999997
37	C	0.377039	0.621736	0
38	C	0.38747	0.612686	0.104215
39	C	0.396707	0.602639	0.982995
40	C	0.409839	0.590668	0.053653
41	C	0.413963	0.588492	0.242521
42	C	0.426195	0.576914	0.264506
43	C	0.431153	0.570498	0.092159
44	C	0.443228	0.558537	0.06013
45	C	0.448624	0.552591	0.887894
46	C	0.460671	0.540841	0.910208
47	C	0.464392	0.537887	0.099336
48	C	0.475958	0.526806	0.175107
49	C	0.479281	0.523449	0.364255
50	C	0.491462	0.511836	0.386525
51	C	0.497367	0.506401	0.214242
52	C	0.509691	0.494688	0.182171
53	C	0.516096	0.48976	0.009988
54	C	0.528081	0.477949	0.032197
55	C	0.530747	0.473929	0.221194
56	C	0.541951	0.46248	0.296798
57	C	0.544021	0.457842	0.4855
58	C	0.55623	0.446259	0.507646
59	C	0.563324	0.442088	0.33566
60	C	0.57618	0.430857	0.309104
61	C	0.588858	0.427674	0.445955
62	C	0.599407	0.415787	0.375055
63	C	0.594474	0.410104	0.185651
64	C	0.603582	0.396905	0.066535
65	C	0.598391	0.391388	0.876481
66	S	0.610801	0.377065	0.786752
67	C	0.622961	0.378264	0
68	C	0.617984	0.389192	0.138484
69	S	0.577297	0.419104	0.096009
70	S	0.555037	0.452534	0.150151
71	S	0.518502	0.484731	0.368133
72	S	0.487856	0.515651	0.028129
73	S	0.453042	0.549597	0.246255
74	S	0.42069	0.578818	0.905853
75	C	0.392765	0.604622	0.792502
76	S	0.37808	0.618461	0.76124
77	H	0.388416	0.613245	0.258577
78	H	0.408631	0.59476	0.361337
79	H	0.431046	0.573563	0.402435
80	H	0.444246	0.556384	0.749686
81	H	0.466243	0.534906	0.790462
82	H	0.473315	0.528986	0.484033
83	H	0.495584	0.507779	0.524717
84	H	0.512479	0.494322	0.871883
85	H	0.534364	0.472726	0.912488
86	H	0.537118	0.462437	0.604826
87	H	0.559422	0.44117	0.645005
88	H	0.590736	0.433689	0.59146
89	H	0.610023	0.411794	0.46102
90	H	0.587954	0.394947	0.7841
91	H	0.624319	0.391516	0.283089
92	H	0.397672	0.598716	0.668637
93	C	0.378201	0.756412	0
94	C	0.387234	0.775795	0.104215
95	C	0.39727	0.794983	0.982995
96	C	0.409221	0.819959	0.053653
97	C	0.411386	0.826225	0.242521
98	C	0.422946	0.849916	0.264506
99	C	0.429358	0.861234	0.092159
100	C	0.441304	0.885151	0.06013
101	C	0.447244	0.896437	0.887894
102	C	0.458976	0.920113	0.910208
103	C	0.461923	0.926754	0.099336
104	C	0.472988	0.949288	0.175107
105	C	0.476339	0.955934	0.364255
106	C	0.487935	0.979609	0.386525
107	C	0.493361	0.990891	0.214242
108	C	0.505056	0.014808	0.182171
109	C	0.509972	0.026082	0.009988
110	C	0.521766	0.049759	0.032197
111	C	0.525785	0.056414	0.221194
112	C	0.537219	0.078953	0.296798
113	C	0.541861	0.08563	0.4855
114	C	0.553426	0.109302	0.507646
115	C	0.55758	0.120508	0.33566
116	C	0.568789	0.144473	0.309104
117	C	0.571932	0.160243	0.445955
118	C	0.583808	0.182569	0.375055
119	C	0.589524	0.183328	0.185651
120	C	0.60272	0.205527	0.066535
121	C	0.60827	0.205865	0.876481
122	S	0.622582	0.232467	0.786752
123	C	0.621334	0.243358	0
124	C	0.610397	0.227525	0.138484
125	S	0.580567	0.157291	0.096009
126	S	0.54714	0.101866	0.150151
127	S	0.515004	0.033483	0.368133
128	S	0.484125	0.972225	0.028129
129	S	0.450228	0.903809	0.246255
130	S	0.421059	0.842548	0.905853
131	C	0.395298	0.78909	0.792502
132	S	0.38148	0.76071	0.76124
133	H	0.38667	0.776178	0.258577
134	H	0.405124	0.814683	0.361337
135	H	0.426287	0.858075	0.402435
136	H	0.443458	0.888307	0.749686
137	H	0.464904	0.931563	0.790462
138	H	0.470811	0.944489	0.484033
139	H	0.491986	0.987747	0.524717
140	H	0.505412	0.017943	0.871883
141	H	0.526977	0.061205	0.912488
142	H	0.537281	0.074192	0.604826
143	H	0.558515	0.117546	0.645005
144	H	0.565896	0.156117	0.59146
145	H	0.587771	0.197097	0.46102
146	H	0.604742	0.191947	0.7841
147	H	0.608044	0.231505	0.283089
148	H	0.401199	0.799851	0.668637
149	C	0.244413	0.621506	0
150	C	0.224948	0.611173	0.104215
151	C	0.205675	0.602031	0.982995
152	C	0.180593	0.589027	0.053653
153	C	0.174303	0.584937	0.242521
154	C	0.150511	0.572825	0.264506
155	C	0.139141	0.567922	0.092159
156	C	0.11512	0.555966	0.06013
157	C	0.103784	0.550627	0.887894
158	C	0.080006	0.5387	0.910208
159	C	0.073337	0.535013	0.099336
160	C	0.050707	0.523561	0.175107
161	C	0.044032	0.520271	0.364255
162	C	0.020254	0.508209	0.386525
163	C	0.008925	0.502362	0.214242
164	C	0.984906	0.490158	0.182171
165	C	0.973585	0.483812	0.009988
166	C	0.949805	0.471946	0.032197
167	C	0.94312	0.469312	0.221194
168	C	0.920481	0.458221	0.296798
169	C	0.913771	0.456182	0.4855
170	C	0.889997	0.444093	0.507646
171	C	0.878748	0.437058	0.33566
172	C	0.854682	0.424324	0.309104
173	C	0.838862	0.411737	0.445955
174	C	0.816436	0.401298	0.375055
175	C	0.815654	0.406222	0.185651
176	C	0.79335	0.397222	0.066535
177	C	0.792991	0.402401	0.876481
178	S	0.766269	0.390122	0.786752
179	C	0.755357	0.378033	0
180	C	0.77127	0.382938	0.138484
181	S	0.841789	0.423259	0.096009
182	S	0.897475	0.445254	0.150151
183	S	0.966147	0.48144	0.368133
184	S	0.027671	0.511778	0.028129
185	S	0.096382	0.546248	0.246255
186	S	0.157904	0.578289	0.905853
187	C	0.21159	0.605942	0.792502
188	S	0.240092	0.620483	0.76124
189	H	0.224567	0.610231	0.258577
190	H	0.185897	0.590211	0.361337
191	H	0.14232	0.568016	0.402435
192	H	0.111948	0.554964	0.749686
193	H	0.068505	0.533184	0.790462
194	H	0.055525	0.526178	0.484033
195	H	0.012081	0.504128	0.524717
196	H	0.981761	0.487389	0.871883
197	H	0.938312	0.465722	0.912488
198	H	0.925254	0.463024	0.604826
199	H	0.881714	0.440939	0.645005
200	H	0.843021	0.409848	0.59146
201	H	0.801858	0.390764	0.46102
202	H	0.806956	0.41276	0.7841
203	H	0.767289	0.376634	0.283089
204	H	0.200781	0.601087	0.668637
