data_C114H54N6O6S12_2023-05-13_09:55:25
#******************************************
#
# CIF file created by Zeo++
# Zeo++ is an open source package to
# analyze microporous materials
#
#*******************************************

_cell_length_a		51.4322   
_cell_length_b		51.7306   
_cell_length_c		7   
_cell_angle_alpha		90   
_cell_angle_beta		90   
_cell_angle_gamma		119.748   

_symmetry_space_group_name_H-M		'P1'
_symmetry_Int_Tables_number		1
_symmetry_cell_setting		Monoclinic

loop_
_symmetry_equiv_pos_as_xyz
'+x,+y,+z'

loop_
_atom_site_label
_atom_site_type_symbol
_atom_site_fract_x
_atom_site_fract_y
_atom_site_fract_z
1	C	0.363469	0.672967	0.999995
2	O	0.389889	0.6776	0.999991
3	C	0.339587	0.642007	0.999998
4	C	0.344226	0.619187	0
5	N	0.373801	0.624523	0
6	C	0.309033	0.636512	3e-06
7	O	0.28757	0.609828	5e-06
8	C	0.301691	0.660322	6e-06
9	C	0.273574	0.654576	5e-06
10	N	0.250336	0.624216	0
11	C	0.326722	0.691034	4e-06
12	O	0.320888	0.711624	7e-06
13	C	0.357768	0.69791	0.999999
14	C	0.379834	0.725928	0.999998
15	N	0.375398	0.7508	0
16	H	0.325944	0.596971	1e-06
17	H	0.267642	0.67163	8e-06
18	H	0.402154	0.729929	0.999997
19	C	0.636531	0.327033	0.999995
20	O	0.610111	0.3224	0.999991
21	C	0.660413	0.357993	0.999998
22	C	0.655774	0.380813	0
23	N	0.626199	0.375477	0
24	C	0.690967	0.363488	3e-06
25	O	0.71243	0.390172	5e-06
26	C	0.698309	0.339678	6e-06
27	C	0.726426	0.345424	5e-06
28	N	0.749664	0.375784	0
29	C	0.673278	0.308966	4e-06
30	O	0.679112	0.288376	7e-06
31	C	0.642232	0.30209	0.999999
32	C	0.620166	0.274072	0.999998
33	N	0.624602	0.2492	0
34	H	0.674056	0.403029	1e-06
35	H	0.732358	0.32837	8e-06
36	H	0.597846	0.270071	0.999997
37	C	0.608147	0.393289	0
38	C	0.63181	0.400142	0.119206
39	S	0.641888	0.4323	0.241985
40	C	0.614425	0.437213	0.134799
41	C	0.61065	0.462521	0.18023
42	C	0.628557	0.486783	0.294841
43	C	0.618133	0.507647	0.307958
44	C	0.59239	0.498839	0.203418
45	C	0.574931	0.514031	0.180382
46	C	0.58029	0.531695	0.017055
47	C	0.56495	0.547288	0.985327
48	C	0.570644	0.56469	0.820821
49	C	0.555447	0.580206	0.788411
50	C	0.534421	0.578508	0.920705
51	C	0.528001	0.561284	0.089071
52	C	0.506783	0.559057	0.22687
53	C	0.490198	0.575205	0.207781
54	C	0.499329	0.604384	0.253733
55	C	0.476692	0.611951	0.2151
56	C	0.450726	0.58839	0.141505
57	C	0.423795	0.588888	0.086777
58	C	0.421501	0.613944	0.047237
59	C	0.391853	0.606711	0
60	C	0.371956	0.576755	0.003876
61	S	0.389358	0.557125	0.065371
62	S	0.454539	0.55733	0.119419
63	C	0.501459	0.54143	0.39033
64	C	0.516697	0.525726	0.42161
65	C	0.510918	0.508235	0.585762
66	C	0.525983	0.492576	0.617618
67	C	0.547041	0.494307	0.485473
68	C	0.553651	0.511736	0.317916
69	C	0.538048	0.527599	0.286538
70	C	0.543604	0.545422	0.120432
71	S	0.581224	0.465726	0.090132
72	C	0.597998	0.414221	0.007567
73	H	0.643702	0.388042	0.140879
74	H	0.648505	0.489805	0.367072
75	H	0.629003	0.528063	0.390327
76	H	0.596784	0.533214	0.913331
77	H	0.586967	0.566232	0.715934
78	H	0.559871	0.593577	0.660059
79	H	0.522845	0.590837	0.889936
80	H	0.521185	0.619588	0.312517
81	H	0.479496	0.633802	0.242276
82	H	0.440349	0.636409	0.051174
83	H	0.348205	0.565328	0.974027
84	H	0.485093	0.540051	0.49462
85	H	0.494513	0.506606	0.690288
86	H	0.521329	0.478955	0.744982
87	H	0.558287	0.481619	0.514862
88	H	0.579549	0.412545	0.923343
89	C	0.6062	0.213269	0
90	C	0.599204	0.229917	0.119206
91	S	0.566891	0.207916	0.241985
92	C	0.562101	0.175793	0.134799
93	C	0.536729	0.146869	0.18023
94	C	0.512297	0.140488	0.294841
95	C	0.491418	0.109393	0.307958
96	C	0.500385	0.092627	0.203418
97	C	0.485232	0.060197	0.180382
98	C	0.467484	0.047938	0.017055
99	C	0.451917	0.017211	0.985327
100	C	0.434429	0.005543	0.820821
101	C	0.41894	0.975034	0.788411
102	C	0.42075	0.955872	0.920705
103	C	0.438062	0.966641	0.089071
104	C	0.440404	0.947815	0.22687
105	C	0.424288	0.915301	0.207781
106	C	0.394967	0.895325	0.253733
107	C	0.38749	0.865348	0.2151
108	C	0.411259	0.863038	0.141505
109	C	0.410896	0.835834	0.086777
110	C	0.38577	0.80863	0.047237
111	C	0.393177	0.786424	0
112	C	0.423332	0.796497	0.003876
113	S	0.442938	0.833285	0.065371
114	S	0.442401	0.897722	0.119419
115	C	0.458116	0.960073	0.39033
116	C	0.473794	0.990809	0.42161
117	C	0.491371	0.00248	0.585762
118	C	0.507005	0.033001	0.617618
119	C	0.505162	0.052162	0.485473
120	C	0.487642	0.041376	0.317916
121	C	0.471807	0.010121	0.286538
122	C	0.453898	0.997898	0.120432
123	S	0.533663	0.114499	0.090132
124	C	0.585251	0.182377	0.007567
125	H	0.611284	0.253749	0.140879
126	H	0.509164	0.157265	0.367072
127	H	0.47088	0.099861	0.390327
128	H	0.465876	0.062784	0.913331
129	H	0.432799	0.020196	0.715934
130	H	0.405503	0.966119	0.660059
131	H	0.40844	0.932125	0.889936
132	H	0.379602	0.901873	0.312517
133	H	0.365554	0.846389	0.242276
134	H	0.363137	0.804971	0.051174
135	H	0.434917	0.784311	0.974027
136	H	0.459582	0.945215	0.49462
137	H	0.493089	0.987832	0.690288
138	H	0.520695	0.041937	0.744982
139	H	0.517835	0.075939	0.514862
140	H	0.587026	0.165749	0.923343
141	C	0.785187	0.392981	0
142	C	0.76852	0.369479	0.119206
143	S	0.790757	0.359322	0.241985
144	C	0.823009	0.386532	0.134799
145	C	0.852156	0.390148	0.18023
146	C	0.858681	0.372267	0.294841
147	C	0.889984	0.382498	0.307958
148	C	0.90676	0.408073	0.203418
149	C	0.939372	0.42531	0.180382
150	C	0.951761	0.419906	0.017055
151	C	0.982667	0.43504	0.985327
152	C	0.994462	0.429305	0.820821
153	C	0.025149	0.444298	0.788411
154	C	0.044365	0.465159	0.920705
155	C	0.033472	0.471613	0.089071
156	C	0.052348	0.492667	0.22687
157	C	0.08505	0.509032	0.207781
158	C	0.105239	0.499829	0.253733
159	C	0.135353	0.52224	0.2151
160	C	0.137549	0.54811	0.141505
161	C	0.164844	0.574816	0.086777
162	C	0.192264	0.576964	0.047237
163	C	0.214505	0.606403	0
164	C	0.204247	0.626287	0.003876
165	S	0.167239	0.609128	0.065371
166	S	0.102594	0.544486	0.119419
167	C	0.03996	0.498035	0.39033
168	C	0.009045	0.483003	0.42161
169	C	0.997246	0.488823	0.585762
170	C	0.966547	0.473962	0.617618
171	C	0.947332	0.453069	0.485473
172	C	0.958242	0.446426	0.317916
173	C	0.98968	0.461819	0.286538
174	C	0.002033	0.456219	0.120432
175	S	0.884648	0.419314	0.090132
176	C	0.816286	0.40294	0.007567
177	H	0.744549	0.357747	0.140879
178	H	0.841866	0.352469	0.367072
179	H	0.899652	0.371614	0.390327
180	H	0.936875	0.403541	0.913331
181	H	0.979769	0.41311	0.715934
182	H	0.034161	0.439843	0.660059
183	H	0.068251	0.476576	0.889936
184	H	0.098748	0.478077	0.312517
185	H	0.154485	0.519348	0.242276
186	H	0.19605	0.558159	0.051174
187	H	0.216414	0.6499	0.974027
188	H	0.054859	0.514272	0.49462
189	H	0.011933	0.5051	0.690288
190	H	0.957512	0.478647	0.744982
191	H	0.923414	0.441981	0.514862
192	H	0.83296	0.421245	0.923343
