data_C72H33N15O6S12_2023-05-13_23:20:53
#******************************************
#
# CIF file created by Zeo++
# Zeo++ is an open source package to
# analyze microporous materials
#
#*******************************************

_cell_length_a		46.1849   
_cell_length_b		46.4834   
_cell_length_c		7   
_cell_angle_alpha		90   
_cell_angle_beta		90   
_cell_angle_gamma		119.719   

_symmetry_space_group_name_H-M		'P1'
_symmetry_Int_Tables_number		1
_symmetry_cell_setting		Monoclinic

loop_
_symmetry_equiv_pos_as_xyz
'+x,+y,+z'

loop_
_atom_site_label
_atom_site_type_symbol
_atom_site_fract_x
_atom_site_fract_y
_atom_site_fract_z
1	C	0.366888	0.673676	0.999995
2	O	0.396308	0.678831	0.999991
3	C	0.340313	0.639231	0.999998
4	C	0.345494	0.613842	0
5	N	0.378426	0.619779	0
6	C	0.306291	0.633117	3e-06
7	O	0.282407	0.603429	5e-06
8	C	0.2981	0.659608	6e-06
9	C	0.266792	0.653215	5e-06
10	N	0.240933	0.619437	0
11	C	0.325955	0.693777	4e-06
12	O	0.319445	0.716685	7e-06
13	C	0.360524	0.701426	0.999999
14	C	0.385079	0.732599	0.999998
15	N	0.380123	0.76027	0
16	H	0.325149	0.589126	1e-06
17	H	0.260175	0.672189	8e-06
18	H	0.409932	0.73705	0.999997
19	C	0.633112	0.326324	0.999995
20	O	0.603692	0.321169	0.999991
21	C	0.659687	0.360769	0.999998
22	C	0.654506	0.386158	0
23	N	0.621574	0.380221	0
24	C	0.693709	0.366883	3e-06
25	O	0.717593	0.396571	5e-06
26	C	0.7019	0.340392	6e-06
27	C	0.733208	0.346785	5e-06
28	N	0.759067	0.380563	0
29	C	0.674045	0.306223	4e-06
30	O	0.680555	0.283315	7e-06
31	C	0.639476	0.298574	0.999999
32	C	0.614921	0.267401	0.999998
33	N	0.619877	0.23973	0
34	H	0.674851	0.410874	1e-06
35	H	0.739825	0.327811	8e-06
36	H	0.590068	0.26295	0.999997
37	C	0.60146	0.400038	0
38	C	0.60642	0.395153	0.187466
39	S	0.589447	0.411874	0.337424
40	C	0.575381	0.425732	0.150626
41	C	0.557317	0.443528	0.17456
42	N	0.547196	0.4535	0.025098
43	C	0.530628	0.469823	0.085135
44	C	0.528246	0.47217	0.279978
45	C	0.51083	0.489328	0.381632
46	C	0.508414	0.49171	0.576152
47	N	0.491426	0.508447	0.609635
48	C	0.48275	0.516994	0.439252
49	C	0.464702	0.534776	0.428654
50	C	0.453097	0.54621	0.575641
51	N	0.436375	0.562685	0.522411
52	C	0.435101	0.56394	0.334764
53	C	0.419094	0.579711	0.236605
54	C	0.415979	0.58278	0.041699
55	C	0.39854	0.599962	0
56	C	0.388594	0.609762	0.159723
57	S	0.400481	0.59805	0.363137
58	S	0.454015	0.545305	0.215407
59	C	0.494715	0.505206	0.295351
60	S	0.547277	0.453421	0.392487
61	C	0.583781	0.417456	0.97705
62	H	0.619053	0.382706	0.244473
63	H	0.520768	0.479536	0.978498
64	H	0.517199	0.483055	0.694167
65	H	0.48614	0.513656	0.740974
66	H	0.456013	0.543336	0.7267
67	H	0.425754	0.573148	0.933956
68	H	0.375022	0.623134	0.168307
69	H	0.492074	0.507808	0.143681
70	H	0.577274	0.423866	0.84092
71	C	0.599407	0.199754	0
72	C	0.604282	0.209524	0.187466
73	S	0.587595	0.176081	0.337424
74	C	0.573766	0.148365	0.150626
75	C	0.556007	0.112771	0.17456
76	N	0.546057	0.092828	0.025098
77	C	0.529767	0.060182	0.085135
78	C	0.527425	0.055488	0.279978
79	C	0.510302	0.021171	0.381632
80	C	0.507926	0.016409	0.576152
81	N	0.491224	0.982935	0.609635
82	C	0.482694	0.965839	0.439252
83	C	0.464949	0.930276	0.428654
84	C	0.45354	0.907409	0.575641
85	N	0.437098	0.874458	0.522411
86	C	0.435846	0.871949	0.334764
87	C	0.420108	0.840407	0.236605
88	C	0.417046	0.834269	0.041699
89	C	0.399899	0.799904	0
90	C	0.390119	0.780305	0.159723
91	S	0.401807	0.80373	0.363137
92	S	0.454442	0.909218	0.215407
93	C	0.494458	0.989416	0.295351
94	S	0.546135	0.092987	0.392487
95	C	0.582025	0.164917	0.97705
96	H	0.616702	0.234418	0.244473
97	H	0.520074	0.040754	0.978498
98	H	0.516563	0.033719	0.694167
99	H	0.486026	0.972518	0.740974
100	H	0.456407	0.913155	0.7267
101	H	0.426657	0.853531	0.933956
102	H	0.376776	0.753563	0.168307
103	H	0.491862	0.984212	0.143681
104	H	0.575628	0.152096	0.84092
105	C	0.798615	0.399695	0
106	C	0.788781	0.394809	0.187466
107	S	0.82244	0.411531	0.337424
108	C	0.850335	0.42539	0.150626
109	C	0.886158	0.443187	0.17456
110	N	0.90623	0.453159	0.025098
111	C	0.939087	0.469482	0.085135
112	C	0.943811	0.471829	0.279978
113	C	0.97835	0.488987	0.381632
114	C	0.983142	0.491368	0.576152
115	N	0.016833	0.508105	0.609635
116	C	0.034038	0.516653	0.439252
117	C	0.069831	0.534435	0.428654
118	C	0.092846	0.545868	0.575641
119	N	0.126009	0.562343	0.522411
120	C	0.128534	0.563598	0.334764
121	C	0.16028	0.579369	0.236605
122	C	0.166457	0.582438	0.041699
123	C	0.201044	0.59962	0
124	C	0.220769	0.609419	0.159723
125	S	0.197193	0.597707	0.363137
126	S	0.091025	0.544963	0.215407
127	C	0.01031	0.504865	0.295351
128	S	0.90607	0.453078	0.392487
129	C	0.833676	0.417114	0.97705
130	H	0.763727	0.382362	0.244473
131	H	0.95864	0.479196	0.978498
132	H	0.965721	0.482713	0.694167
133	H	0.027317	0.513313	0.740974
134	H	0.087063	0.542995	0.7267
135	H	0.147071	0.572807	0.933956
136	H	0.247684	0.62279	0.168307
137	H	0.015547	0.507467	0.143681
138	H	0.84658	0.423525	0.84092
