data_C72H36N12O6S6_2023-05-12_03:11:05
#******************************************
#
# CIF file created by Zeo++
# Zeo++ is an open source package to
# analyze microporous materials
#
#*******************************************

_cell_length_a		43.4264   
_cell_length_b		43.7249   
_cell_length_c		7   
_cell_angle_alpha		90   
_cell_angle_beta		90   
_cell_angle_gamma		119.702   

_symmetry_space_group_name_H-M		'P1'
_symmetry_Int_Tables_number		1
_symmetry_cell_setting		Monoclinic

loop_
_symmetry_equiv_pos_as_xyz
'+x,+y,+z'

loop_
_atom_site_label
_atom_site_type_symbol
_atom_site_fract_x
_atom_site_fract_y
_atom_site_fract_z
1	C	0.369017	0.674117	0.999995
2	O	0.400303	0.679596	0.999991
3	C	0.340767	0.637506	0.999998
4	C	0.346287	0.61052	0
5	N	0.381308	0.61683	0
6	C	0.304586	0.631007	3e-06
7	O	0.279196	0.599452	5e-06
8	C	0.295865	0.659164	6e-06
9	C	0.26257	0.652369	5e-06
10	N	0.235082	0.616466	0
11	C	0.325476	0.695483	4e-06
12	O	0.318543	0.719831	7e-06
13	C	0.362238	0.703613	0.999999
14	C	0.388341	0.736746	0.999998
15	N	0.38306	0.766158	0
16	H	0.324659	0.584249	1e-06
17	H	0.255526	0.672537	8e-06
18	H	0.414771	0.741477	0.999997
19	C	0.630983	0.325883	0.999995
20	O	0.599697	0.320404	0.999991
21	C	0.659233	0.362494	0.999998
22	C	0.653713	0.38948	0
23	N	0.618692	0.38317	0
24	C	0.695414	0.368993	3e-06
25	O	0.720804	0.400548	5e-06
26	C	0.704135	0.340836	6e-06
27	C	0.73743	0.347631	5e-06
28	N	0.764918	0.383534	0
29	C	0.674524	0.304517	4e-06
30	O	0.681457	0.280169	7e-06
31	C	0.637762	0.296387	0.999999
32	C	0.611659	0.263254	0.999998
33	N	0.61694	0.233842	0
34	H	0.675341	0.415751	1e-06
35	H	0.744474	0.327463	8e-06
36	H	0.585229	0.258523	0.999997
37	C	0.402707	0.595767	0
38	C	0.401636	0.596812	0.804886
39	S	0.422415	0.576355	0.704211
40	C	0.433126	0.565824	0.923135
41	C	0.452892	0.54637	0.936606
42	C	0.464232	0.535213	0.777768
43	C	0.48283	0.516908	0.800676
44	C	0.49021	0.509639	0.983399
45	C	0.509793	0.490364	0.016602
46	C	0.517175	0.483096	0.199325
47	C	0.535772	0.464791	0.222232
48	C	0.54711	0.453632	0.063394
49	C	0.566874	0.434176	0.076865
50	C	0.579472	0.421777	0.930909
51	C	0.597293	0.404233	0
52	C	0.598359	0.403182	0.195115
53	S	0.577577	0.423638	0.295789
54	C	0.538482	0.462126	0.886752
55	N	0.520472	0.479853	0.859564
56	N	0.479529	0.520148	0.140436
57	C	0.461519	0.537874	0.113248
58	C	0.420532	0.578227	0.069091
59	H	0.389796	0.60846	0.716156
60	H	0.459044	0.540324	0.632793
61	H	0.491417	0.508461	0.675404
62	H	0.50859	0.491545	0.324597
63	H	0.540961	0.459681	0.367208
64	H	0.576115	0.425083	0.780466
65	H	0.610194	0.391531	0.283845
66	H	0.545931	0.454795	0.753528
67	H	0.454067	0.545204	0.246472
68	H	0.423893	0.574926	0.219534
69	C	0.404077	0.808285	0
70	C	0.403034	0.806185	0.804886
71	S	0.423446	0.847096	0.704211
72	C	0.433953	0.86817	0.923135
73	C	0.453364	0.907079	0.936606
74	C	0.464496	0.929398	0.777768
75	C	0.48276	0.966009	0.800676
76	C	0.490013	0.980543	0.983399
77	C	0.509246	0.019094	0.016602
78	C	0.516497	0.033627	0.199325
79	C	0.534762	0.070238	0.222232
80	C	0.545897	0.092557	0.063394
81	C	0.565309	0.131467	0.076865
82	C	0.577681	0.156267	0.930909
83	C	0.595185	0.191351	0
84	C	0.596234	0.193452	0.195115
85	S	0.575824	0.152541	0.295789
86	C	0.537421	0.07557	0.886752
87	N	0.519733	0.040116	0.859564
88	N	0.479528	0.95952	0.140436
89	C	0.461841	0.924066	0.113248
90	C	0.421577	0.84337	0.069091
91	H	0.391411	0.782883	0.716156
92	H	0.459396	0.919181	0.632793
93	H	0.491188	0.982909	0.675404
94	H	0.508067	0.016728	0.324597
95	H	0.53986	0.080455	0.367208
96	H	0.574382	0.149657	0.780466
97	H	0.60786	0.216753	0.283845
98	H	0.544736	0.090234	0.753528
99	H	0.454527	0.909402	0.246472
100	H	0.424871	0.84998	0.219534
101	C	0.192666	0.595403	0
102	C	0.19478	0.596457	0.804886
103	S	0.153589	0.576004	0.704211
104	C	0.13237	0.565461	0.923135
105	C	0.093194	0.546005	0.936606
106	C	0.070722	0.534843	0.777768
107	C	0.033859	0.516536	0.800676
108	C	0.019226	0.509272	0.983399
109	C	0.980411	0.489997	0.016602
110	C	0.965778	0.482731	0.199325
111	C	0.928915	0.464425	0.222232
112	C	0.906443	0.453265	0.063394
113	C	0.867267	0.433811	0.076865
114	C	0.842297	0.421411	0.930909
115	C	0.806971	0.403869	0
116	C	0.804857	0.40282	0.195115
117	S	0.846048	0.423276	0.295789
118	C	0.923547	0.461758	0.886752
119	N	0.959244	0.479485	0.859564
120	N	0.040393	0.519786	0.140436
121	C	0.07609	0.537514	0.113248
122	C	0.15734	0.577857	0.069091
123	H	0.218242	0.608111	0.716156
124	H	0.081009	0.539949	0.632793
125	H	0.016844	0.508085	0.675404
126	H	0.982793	0.491181	0.324597
127	H	0.918628	0.459317	0.367208
128	H	0.848952	0.424715	0.780466
129	H	0.781395	0.39117	0.283845
130	H	0.908782	0.454425	0.753528
131	H	0.090855	0.544848	0.246472
132	H	0.150685	0.574549	0.219534
