data_C87H51N9O6S6_2023-05-11_06:16:47
#******************************************
#
# CIF file created by Zeo++
# Zeo++ is an open source package to
# analyze microporous materials
#
#*******************************************

_cell_length_a		35.4638   
_cell_length_b		35.7625   
_cell_length_c		7   
_cell_angle_alpha		90   
_cell_angle_beta		90   
_cell_angle_gamma		119.635   

_symmetry_space_group_name_H-M		'P1'
_symmetry_Int_Tables_number		1
_symmetry_cell_setting		Monoclinic

loop_
_symmetry_equiv_pos_as_xyz
'+x,+y,+z'

loop_
_atom_site_label
_atom_site_type_symbol
_atom_site_fract_x
_atom_site_fract_y
_atom_site_fract_z
1	C	0.377017	0.67577	0.999995
2	O	0.415318	0.682464	0.999991
3	C	0.342484	0.631037	0.999998
4	C	0.349287	0.598064	0
5	N	0.392161	0.605774	0
6	C	0.29819	0.623096	3e-06
7	O	0.267151	0.584541	5e-06
8	C	0.287464	0.657499	6e-06
9	C	0.246705	0.649197	5e-06
10	N	0.213104	0.60533	0
11	C	0.323664	0.701875	4e-06
12	O	0.315135	0.731625	7e-06
13	C	0.368667	0.711809	0.999999
14	C	0.400576	0.752293	0.999998
15	N	0.394061	0.788229	0
16	H	0.322847	0.565965	1e-06
17	H	0.238046	0.673839	8e-06
18	H	0.432932	0.758073	0.999997
19	C	0.622983	0.32423	0.999995
20	O	0.584682	0.317536	0.999991
21	C	0.657516	0.368963	0.999998
22	C	0.650713	0.401936	0
23	N	0.607839	0.394226	0
24	C	0.70181	0.376904	3e-06
25	O	0.732849	0.415459	5e-06
26	C	0.712536	0.342501	6e-06
27	C	0.753295	0.350803	5e-06
28	N	0.786896	0.39467	0
29	C	0.676336	0.298125	4e-06
30	O	0.684865	0.268375	7e-06
31	C	0.631333	0.288191	0.999999
32	C	0.599424	0.247707	0.999998
33	N	0.605939	0.211771	0
34	H	0.677153	0.434035	1e-06
35	H	0.761954	0.326161	8e-06
36	H	0.567068	0.241927	0.999997
37	C	0.5816	0.419962	0
38	C	0.538163	0.391548	0.01832
39	C	0.522286	0.396667	0.198084
40	C	0.554082	0.428611	0.311146
41	C	0.549687	0.442805	0.495958
42	C	0.578805	0.451381	0.636429
43	C	0.564763	0.463763	0.81587
44	C	0.522808	0.4607	0.756297
45	C	0.514471	0.44865	0.571973
46	C	0.476306	0.444216	0.471474
47	C	0.480371	0.467378	0.305126
48	C	0.443311	0.462118	0.211588
49	C	0.402692	0.433881	0.287381
50	C	0.362583	0.426875	0.193944
51	C	0.327302	0.387558	0.17749
52	C	0.292008	0.390295	0.073124
53	C	0.312434	0.437521	0.034743
54	C	0.353061	0.458402	0.105435
55	C	0.378605	0.504089	0.10034
56	C	0.401001	0.532073	0.248831
57	C	0.423988	0.576069	0.191035
58	C	0.4184	0.580038	0
59	S	0.386482	0.532457	0.890521
60	N	0.397853	0.410682	0.447884
61	C	0.43443	0.416469	0.535595
62	S	0.603268	0.452233	0.192259
63	H	0.518506	0.36833	0.91051
64	H	0.488775	0.377516	0.242997
65	H	0.608061	0.449191	0.626816
66	H	0.588345	0.496515	0.859602
67	H	0.559837	0.441309	0.931907
68	H	0.503083	0.468065	0.849616
69	H	0.512186	0.489482	0.246799
70	H	0.446572	0.479758	0.080774
71	H	0.324646	0.357969	0.230595
72	H	0.263052	0.379015	0.162208
73	H	0.28365	0.371886	0.940034
74	H	0.295592	0.452017	0.9654
75	H	0.400709	0.521262	0.39386
76	H	0.443294	0.602811	0.285433
77	H	0.428713	0.397096	0.663334
78	C	0.579368	0.159854	0
79	C	0.608236	0.145143	0.01832
80	C	0.603208	0.124374	0.198084
81	C	0.57088	0.124079	0.311146
82	C	0.55665	0.105647	0.495958
83	C	0.547821	0.125904	0.636429
84	C	0.535483	0.099738	0.81587
85	C	0.538867	0.061325	0.756297
86	C	0.551036	0.065051	0.571973
87	C	0.55577	0.031743	0.471474
88	C	0.532468	0.012767	0.305126
89	C	0.538024	0.981372	0.211588
90	C	0.566693	0.969269	0.287381
91	C	0.574026	0.936594	0.193944
92	C	0.613789	0.940765	0.17749
93	C	0.611296	0.903175	0.073124
94	C	0.563696	0.876476	0.034743
95	C	0.542419	0.89589	0.105435
96	C	0.496328	0.875775	0.10034
97	C	0.468047	0.870125	0.248831
98	C	0.423674	0.849163	0.191035
99	C	0.419727	0.839702	0
100	S	0.467768	0.855399	0.890521
101	N	0.590038	0.987517	0.447884
102	C	0.583955	0.017911	0.535595
103	S	0.546786	0.149229	0.192259
104	H	0.631708	0.148769	0.91051
105	H	0.622695	0.110274	0.242997
106	H	0.549806	0.156983	0.626816
107	H	0.502402	0.090526	0.859602
108	H	0.558079	0.11716	0.931907
109	H	0.531612	0.034525	0.849616
110	H	0.510026	0.022259	0.246799
111	H	0.520277	0.967083	0.080774
112	H	0.643537	0.967512	0.230595
113	H	0.622842	0.885764	0.162208
114	H	0.629854	0.913192	0.940034
115	H	0.549255	0.845446	0.9654
116	H	0.478912	0.880569	0.39386
117	H	0.396664	0.841693	0.285433
118	H	0.603462	0.031494	0.663334
119	C	0.838357	0.419517	0
120	C	0.852927	0.462643	0.01832
121	C	0.873832	0.478292	0.198084
122	C	0.874365	0.446643	0.311146
123	C	0.892989	0.450881	0.495958
124	C	0.8727	0.422049	0.636429
125	C	0.89908	0.435832	0.81587
126	C	0.937652	0.477308	0.756297
127	C	0.933819	0.485633	0.571973
128	C	0.96725	0.523374	0.471474
129	C	0.986487	0.519188	0.305126
130	C	0.017991	0.555843	0.211588
131	C	0.029941	0.596184	0.287381
132	C	0.062717	0.635864	0.193944
133	C	0.058235	0.671011	0.17749
134	C	0.096022	0.705863	0.073124
135	C	0.123196	0.685335	0.034743
136	C	0.103846	0.645041	0.105435
137	C	0.124394	0.619469	0.10034
138	C	0.130278	0.597135	0.248831
139	C	0.151664	0.574101	0.191035
140	C	0.161199	0.579593	0
141	S	0.145076	0.611478	0.890521
142	N	0.011435	0.601135	0.447884
143	C	0.980941	0.564953	0.535595
144	S	0.849272	0.397872	0.192259
145	H	0.849112	0.482234	0.91051
146	H	0.887856	0.511543	0.242997
147	H	0.841459	0.393159	0.626816
148	H	0.908579	0.412292	0.859602
149	H	0.88141	0.440864	0.931907
150	H	0.964631	0.496743	0.849616
151	H	0.977114	0.487592	0.246799
152	H	0.032477	0.552492	0.080774
153	H	0.031143	0.673852	0.230595
154	H	0.113431	0.734555	0.162208
155	H	0.085821	0.714255	0.940034
156	H	0.154479	0.70187	0.9654
157	H	0.119705	0.597502	0.39386
158	H	0.159368	0.55483	0.285433
159	H	0.967151	0.570744	0.663334
