data_C90H42N6O6S18_2023-05-12_09:51:38
#******************************************
#
# CIF file created by Zeo++
# Zeo++ is an open source package to
# analyze microporous materials
#
#*******************************************

_cell_length_a		47.9222   
_cell_length_b		48.2206   
_cell_length_c		7   
_cell_angle_alpha		90   
_cell_angle_beta		90   
_cell_angle_gamma		119.73   

_symmetry_space_group_name_H-M		'P1'
_symmetry_Int_Tables_number		1
_symmetry_cell_setting		Monoclinic

loop_
_symmetry_equiv_pos_as_xyz
'+x,+y,+z'

loop_
_atom_site_label
_atom_site_type_symbol
_atom_site_fract_x
_atom_site_fract_y
_atom_site_fract_z
1	C	0.365673	0.673424	0.999995
2	O	0.394027	0.678394	0.999991
3	C	0.340055	0.640217	0.999998
4	C	0.345043	0.61574	0
5	N	0.376782	0.621464	0
6	C	0.307265	0.634323	3e-06
7	O	0.284241	0.605701	5e-06
8	C	0.299376	0.659861	6e-06
9	C	0.269202	0.653698	5e-06
10	N	0.244274	0.621134	0
11	C	0.326228	0.692803	4e-06
12	O	0.319958	0.714888	7e-06
13	C	0.359546	0.700178	0.999999
14	C	0.383216	0.73023	0.999998
15	N	0.378446	0.756907	0
16	H	0.325431	0.591912	1e-06
17	H	0.262828	0.671991	8e-06
18	H	0.407169	0.734521	0.999997
19	C	0.634327	0.326576	0.999995
20	O	0.605973	0.321606	0.999991
21	C	0.659945	0.359783	0.999998
22	C	0.654957	0.38426	0
23	N	0.623218	0.378536	0
24	C	0.692735	0.365677	3e-06
25	O	0.715759	0.394299	5e-06
26	C	0.700624	0.340139	6e-06
27	C	0.730798	0.346302	5e-06
28	N	0.755726	0.378866	0
29	C	0.673772	0.307197	4e-06
30	O	0.680042	0.285112	7e-06
31	C	0.640454	0.299822	0.999999
32	C	0.616784	0.26977	0.999998
33	N	0.621554	0.243093	0
34	H	0.674569	0.408088	1e-06
35	H	0.737172	0.328009	8e-06
36	H	0.592831	0.265479	0.999997
37	C	0.603837	0.397641	0
38	C	0.590501	0.410787	0.116998
39	C	0.595056	0.406308	0.314108
40	C	0.582853	0.41834	0.487346
41	C	0.587286	0.413981	0.676845
42	C	0.573542	0.42753	0.800793
43	C	0.558917	0.441935	0.703594
44	C	0.542829	0.45779	0.787536
45	C	0.53911	0.461452	0.980171
46	C	0.522092	0.478225	0.016319
47	C	0.512907	0.48728	0.851094
48	C	0.495347	0.504588	0.838636
49	C	0.484543	0.515227	0.989685
50	C	0.468016	0.531518	0.929741
51	C	0.466289	0.533231	0.733239
52	C	0.451173	0.548133	0.627164
53	C	0.435673	0.563416	0.702996
54	C	0.423292	0.57562	0.560489
55	C	0.42961	0.569388	0.378612
56	C	0.419061	0.579786	0.190822
57	C	0.425692	0.573246	0.009697
58	S	0.411139	0.587592	0.83484
59	C	0.396163	0.602359	0
60	C	0.401754	0.596849	0.184646
61	S	0.450245	0.549044	0.381715
62	S	0.484991	0.514806	0.626082
63	S	0.525357	0.475013	0.65472
64	S	0.562325	0.438565	0.461229
65	C	0.61168	0.389929	0.336084
66	S	0.621611	0.380134	0.120807
67	H	0.578156	0.422948	0.06457
68	H	0.599681	0.401771	0.727352
69	H	0.574543	0.42655	0.955032
70	H	0.548106	0.452584	0.092729
71	H	0.516991	0.483251	0.158822
72	H	0.488154	0.511661	0.13837
73	H	0.457937	0.541446	0.028768
74	H	0.433115	0.56594	0.854709
75	H	0.410474	0.588258	0.592901
76	H	0.438333	0.560783	0.969252
77	H	0.393876	0.604617	0.308152
78	H	0.618687	0.383031	0.466477
79	C	0.601819	0.204553	0
80	C	0.5887	0.178262	0.116998
81	C	0.593169	0.18723	0.314108
82	C	0.581162	0.163169	0.487346
83	C	0.585512	0.171898	0.676845
84	C	0.57199	0.1448	0.800793
85	C	0.557614	0.115978	0.703594
86	C	0.541791	0.084265	0.787536
87	C	0.538136	0.076936	0.980171
88	C	0.521397	0.043388	0.016319
89	C	0.51236	0.025279	0.851094
90	C	0.495087	0.99066	0.838636
91	C	0.484469	0.96937	0.989685
92	C	0.468211	0.936788	0.929741
93	C	0.466502	0.933373	0.733239
94	C	0.45163	0.903571	0.627164
95	C	0.436377	0.873009	0.702996
96	C	0.424197	0.848599	0.560489
97	C	0.430417	0.861059	0.378612
98	C	0.420039	0.840262	0.190822
99	C	0.426567	0.853339	0.009697
100	S	0.41225	0.824648	0.83484
101	C	0.397512	0.795117	0
102	C	0.403011	0.80614	0.184646
103	S	0.45072	0.901745	0.381715
104	S	0.484889	0.970233	0.626082
105	S	0.524602	0.049817	0.65472
106	S	0.560977	0.122708	0.461229
107	C	0.609516	0.219997	0.336084
108	S	0.619291	0.239581	0.120807
109	H	0.576563	0.153931	0.06457
110	H	0.597697	0.196326	0.727352
111	H	0.572968	0.146767	0.955032
112	H	0.546986	0.094672	0.092729
113	H	0.516381	0.033333	0.158822
114	H	0.488029	0.976497	0.13837
115	H	0.458303	0.916925	0.028768
116	H	0.433858	0.867963	0.854709
117	H	0.411585	0.823326	0.592901
118	H	0.439005	0.878264	0.969252
119	H	0.395258	0.790605	0.308152
120	H	0.6164	0.233802	0.466477
121	C	0.793845	0.397311	0
122	C	0.8203	0.410457	0.116998
123	C	0.811276	0.405967	0.314108
124	C	0.835486	0.417996	0.487346
125	C	0.826703	0.413626	0.676845
126	C	0.853969	0.427175	0.800793
127	C	0.88297	0.441592	0.703594
128	C	0.914881	0.45745	0.787536
129	C	0.922255	0.461116	0.980171
130	C	0.956012	0.477892	0.016319
131	C	0.974234	0.486946	0.851094
132	C	0.009067	0.504257	0.838636
133	C	0.03049	0.514907	0.989685
134	C	0.063274	0.531198	0.929741
135	C	0.066711	0.532901	0.733239
136	C	0.096698	0.547802	0.627164
137	C	0.12745	0.563081	0.702996
138	C	0.152012	0.575286	0.560489
139	C	0.139474	0.569057	0.378612
140	C	0.160401	0.579457	0.190822
141	C	0.147242	0.57292	0.009697
142	S	0.176112	0.587265	0.83484
143	C	0.205826	0.602029	0
144	C	0.194735	0.596517	0.184646
145	S	0.098535	0.548716	0.381715
146	S	0.029621	0.514466	0.626082
147	S	0.949542	0.474674	0.65472
148	S	0.876199	0.438232	0.461229
149	C	0.778305	0.389579	0.336084
150	S	0.758599	0.37979	0.120807
151	H	0.844781	0.422626	0.06457
152	H	0.802123	0.401408	0.727352
153	H	0.85199	0.426188	0.955032
154	H	0.904409	0.452249	0.092729
155	H	0.966129	0.482921	0.158822
156	H	0.023319	0.511348	0.13837
157	H	0.083261	0.541134	0.028768
158	H	0.132528	0.565603	0.854709
159	H	0.177442	0.587921	0.592901
160	H	0.122163	0.560458	0.969252
161	H	0.210367	0.604283	0.308152
162	H	0.764414	0.382672	0.466477
