data_C48H24N18O6_2023-05-10_23:34:32
#******************************************
#
# CIF file created by Zeo++
# Zeo++ is an open source package to
# analyze microporous materials
#
#*******************************************

_cell_length_a		34.1716   
_cell_length_b		34.4702   
_cell_length_c		7   
_cell_angle_alpha		90   
_cell_angle_beta		90   
_cell_angle_gamma		119.622   

_symmetry_space_group_name_H-M		'P1'
_symmetry_Int_Tables_number		1
_symmetry_cell_setting		Monoclinic

loop_
_symmetry_equiv_pos_as_xyz
'+x,+y,+z'

loop_
_atom_site_label
_atom_site_type_symbol
_atom_site_fract_x
_atom_site_fract_y
_atom_site_fract_z
1	C	0.378666	0.67611	0.999995
2	O	0.418414	0.683054	0.999991
3	C	0.34284	0.629706	0.999998
4	C	0.34991	0.595502	0
5	N	0.394403	0.6035	0
6	C	0.296874	0.621469	3e-06
7	O	0.264672	0.581474	5e-06
8	C	0.285732	0.657157	6e-06
9	C	0.243434	0.648545	5e-06
10	N	0.208575	0.603039	0
11	C	0.323289	0.70319	4e-06
12	O	0.314428	0.734051	7e-06
13	C	0.36999	0.713495	0.999999
14	C	0.403094	0.75549	0.999998
15	N	0.396322	0.792769	0
16	H	0.322479	0.562204	1e-06
17	H	0.234441	0.674107	8e-06
18	H	0.436673	0.761487	0.999997
19	C	0.621334	0.32389	0.999995
20	O	0.581586	0.316946	0.999991
21	C	0.65716	0.370294	0.999998
22	C	0.65009	0.404498	0
23	N	0.605597	0.3965	0
24	C	0.703126	0.378531	3e-06
25	O	0.735328	0.418526	5e-06
26	C	0.714268	0.342843	6e-06
27	C	0.756566	0.351455	5e-06
28	N	0.791425	0.396961	0
29	C	0.676711	0.29681	4e-06
30	O	0.685572	0.265949	7e-06
31	C	0.63001	0.286505	0.999999
32	C	0.596906	0.24451	0.999998
33	N	0.603678	0.207231	0
34	H	0.677521	0.437796	1e-06
35	H	0.765559	0.325893	8e-06
36	H	0.563327	0.238513	0.999997
37	C	0.421641	0.576803	0
38	N	0.428632	0.569951	0.18393
39	C	0.451537	0.5475	0.209541
40	C	0.467121	0.532227	0.05932
41	C	0.491796	0.508042	0.095281
42	C	0.50748	0.49267	0.955322
43	C	0.532321	0.468321	0.977587
44	C	0.543835	0.457043	0.151695
45	N	0.566896	0.434438	0.167228
46	C	0.578359	0.423197	0
47	C	0.567136	0.43419	0.82582
48	N	0.544081	0.456787	0.810934
49	N	0.459907	0.539299	0.875516
50	C	0.436992	0.561758	0.849432
51	H	0.457002	0.542144	0.357617
52	H	0.496675	0.503256	0.244668
53	H	0.50201	0.498031	0.806524
54	H	0.534972	0.46574	0.287415
55	H	0.576275	0.425227	0.69124
56	H	0.431423	0.567218	0.701729
57	C	0.422944	0.846164	0
58	N	0.429777	0.859868	0.18393
59	C	0.452164	0.904769	0.209541
60	C	0.467394	0.935316	0.05932
61	C	0.491511	0.983686	0.095281
62	C	0.50684	0.014432	0.955322
63	C	0.53112	0.063128	0.977587
64	C	0.542366	0.085692	0.151695
65	N	0.564907	0.1309	0.167228
66	C	0.576117	0.153375	0
67	C	0.565154	0.131383	0.82582
68	N	0.542621	0.086188	0.810934
69	N	0.460342	0.921174	0.875516
70	C	0.437946	0.876255	0.849432
71	H	0.457505	0.915482	0.357617
72	H	0.496284	0.993255	0.244668
73	H	0.501494	0.003709	0.806524
74	H	0.533694	0.068308	0.287415
75	H	0.574093	0.149303	0.69124
76	H	0.432502	0.865336	0.701729
77	C	0.154715	0.576341	0
78	N	0.140892	0.56949	0.18393
79	C	0.095599	0.547039	0.209541
80	C	0.064786	0.531765	0.05932
81	C	0.015994	0.50758	0.095281
82	C	0.98498	0.492207	0.955322
83	C	0.935859	0.467859	0.977587
84	C	0.913099	0.456573	0.151695
85	N	0.867497	0.43397	0.167228
86	C	0.844825	0.422736	0
87	C	0.86701	0.433735	0.82582
88	N	0.912598	0.456333	0.810934
89	N	0.079051	0.538835	0.875516
90	C	0.124362	0.561295	0.849432
91	H	0.084793	0.541683	0.357617
92	H	0.006341	0.502797	0.244668
93	H	0.995797	0.497569	0.806524
94	H	0.930634	0.46526	0.287415
95	H	0.848933	0.424778	0.69124
96	H	0.135376	0.566754	0.701729
