data_C60H18N6O6S6_2023-05-30_09:03:13
#******************************************
#
# CIF file created by Zeo++
# Zeo++ is an open source package to
# analyze microporous materials
#
#*******************************************

_cell_length_a		42.2496   
_cell_length_b		42.5482   
_cell_length_c		7   
_cell_angle_alpha		90   
_cell_angle_beta		90   
_cell_angle_gamma		119.694   

_symmetry_space_group_name_H-M		'P1'
_symmetry_Int_Tables_number		1
_symmetry_cell_setting		Monoclinic

loop_
_symmetry_equiv_pos_as_xyz
'+x,+y,+z'

loop_
_atom_site_label
_atom_site_type_symbol
_atom_site_fract_x
_atom_site_fract_y
_atom_site_fract_z
1	C	0.37001	0.674323	0.999995
2	O	0.402166	0.679952	0.999991
3	C	0.340979	0.636702	0.999998
4	C	0.346657	0.608971	0
5	N	0.382652	0.615456	0
6	C	0.303792	0.630024	3e-06
7	O	0.2777	0.597598	5e-06
8	C	0.294822	0.658957	6e-06
9	C	0.260602	0.651975	5e-06
10	N	0.232354	0.615082	0
11	C	0.325252	0.696277	4e-06
12	O	0.318122	0.721297	7e-06
13	C	0.363037	0.704632	0.999999
14	C	0.389861	0.738678	0.999998
15	N	0.384428	0.768901	0
16	H	0.324431	0.581976	1e-06
17	H	0.253358	0.672698	8e-06
18	H	0.417026	0.74354	0.999997
19	C	0.62999	0.325677	0.999995
20	O	0.597834	0.320048	0.999991
21	C	0.659021	0.363298	0.999998
22	C	0.653343	0.391029	0
23	N	0.617348	0.384544	0
24	C	0.696208	0.369976	3e-06
25	O	0.7223	0.402402	5e-06
26	C	0.705178	0.341043	6e-06
27	C	0.739398	0.348025	5e-06
28	N	0.767646	0.384918	0
29	C	0.674748	0.303723	4e-06
30	O	0.681878	0.278703	7e-06
31	C	0.636963	0.295368	0.999999
32	C	0.610139	0.261322	0.999998
33	N	0.615572	0.231099	0
34	H	0.675569	0.418024	1e-06
35	H	0.746642	0.327302	8e-06
36	H	0.582974	0.25646	0.999997
37	C	0.404651	0.593812	0
38	C	0.420609	0.573868	0.946044
39	C	0.43226	0.562015	0.108334
40	C	0.449843	0.540729	0.100243
41	C	0.464611	0.522843	0.093202
42	C	0.483547	0.499902	0.084143
43	C	0.498302	0.482019	0.077055
44	C	0.517233	0.459074	0.067922
45	C	0.531992	0.441182	0.060768
46	C	0.549603	0.419925	0.052124
47	C	0.532455	0.383802	0.101088
48	S	0.560749	0.365898	0.075578
49	C	0.595349	0.406188	0
50	C	0.586339	0.433046	0.993056
51	C	0.424632	0.573476	0.27761
52	S	0.403457	0.598471	0.239944
53	H	0.423828	0.568018	0.799034
54	H	0.504794	0.3669	0.150558
55	H	0.604877	0.460553	0.948352
56	H	0.430347	0.568531	0.421693
57	C	0.406023	0.81219	0
58	C	0.425947	0.847807	0.946044
59	C	0.437776	0.871121	0.108334
60	C	0.459039	0.909683	0.100243
61	C	0.476905	0.942078	0.093202
62	C	0.49982	0.983623	0.084143
63	C	0.517683	0.016002	0.077055
64	C	0.540603	0.057546	0.067922
65	C	0.558476	0.089939	0.060768
66	C	0.579709	0.128499	0.052124
67	C	0.616082	0.147424	0.101088
68	S	0.633883	0.193228	0.075578
69	C	0.593219	0.187437	0
70	C	0.56631	0.151826	0.993056
71	C	0.426316	0.85218	0.27761
72	S	0.401353	0.806377	0.239944
73	H	0.431801	0.856808	0.799034
74	H	0.633221	0.13684	0.150558
75	H	0.538578	0.142839	0.948352
76	H	0.431246	0.862752	0.421693
77	C	0.18876	0.593438	0
78	C	0.152878	0.577764	0.946044
79	C	0.129398	0.566302	0.108334
80	C	0.090552	0.549027	0.100243
81	C	0.057919	0.534519	0.093202
82	C	0.016067	0.515914	0.084143
83	C	0.983449	0.501418	0.077055
84	C	0.941598	0.482819	0.067922
85	C	0.908966	0.468318	0.060768
86	C	0.870122	0.451015	0.052124
87	C	0.850898	0.468213	0.101088
88	S	0.804803	0.440314	0.075578
89	C	0.810867	0.405814	0
90	C	0.846785	0.414568	0.993056
91	C	0.148486	0.573783	0.27761
92	S	0.194624	0.594591	0.239944
93	H	0.143805	0.574613	0.799034
94	H	0.861419	0.4957	0.150558
95	H	0.855979	0.396047	0.948352
96	H	0.137841	0.568156	0.421693
