data_C102H48N12O6S12_2023-05-13_03:11:27
#******************************************
#
# CIF file created by Zeo++
# Zeo++ is an open source package to
# analyze microporous materials
#
#*******************************************

_cell_length_a		56.0839   
_cell_length_b		56.3823   
_cell_length_c		7   
_cell_angle_alpha		90   
_cell_angle_beta		90   
_cell_angle_gamma		119.769   

_symmetry_space_group_name_H-M		'P1'
_symmetry_Int_Tables_number		1
_symmetry_cell_setting		Monoclinic

loop_
_symmetry_equiv_pos_as_xyz
'+x,+y,+z'

loop_
_atom_site_label
_atom_site_type_symbol
_atom_site_fract_x
_atom_site_fract_y
_atom_site_fract_z
1	C	0.360972	0.672448	0.999995
2	O	0.385203	0.6767	0.999991
3	C	0.339059	0.644037	0.999998
4	C	0.343304	0.623095	0
5	N	0.370428	0.627992	0
6	C	0.311037	0.638994	3e-06
7	O	0.291344	0.614506	5e-06
8	C	0.304313	0.660844	6e-06
9	C	0.278526	0.655571	5e-06
10	N	0.257204	0.62771	0
11	C	0.32728	0.689029	4e-06
12	O	0.321937	0.707924	7e-06
13	C	0.355754	0.695338	0.999999
14	C	0.376	0.72105	0.999998
15	N	0.371942	0.743874	0
16	H	0.32653	0.602708	1e-06
17	H	0.273092	0.671222	8e-06
18	H	0.39647	0.724722	0.999997
19	C	0.639028	0.327552	0.999995
20	O	0.614797	0.3233	0.999991
21	C	0.660941	0.355963	0.999998
22	C	0.656696	0.376905	0
23	N	0.629572	0.372008	0
24	C	0.688963	0.361006	3e-06
25	O	0.708656	0.385494	5e-06
26	C	0.695687	0.339156	6e-06
27	C	0.721474	0.344429	5e-06
28	N	0.742796	0.37229	0
29	C	0.67272	0.310971	4e-06
30	O	0.678063	0.292076	7e-06
31	C	0.644246	0.304662	0.999999
32	C	0.624	0.27895	0.999998
33	N	0.628058	0.256126	0
34	H	0.67347	0.397292	1e-06
35	H	0.726908	0.328778	8e-06
36	H	0.60353	0.275278	0.999997
37	C	0.613024	0.388354	0
38	C	0.618726	0.382719	0.179043
39	S	0.606199	0.395091	0.351132
40	C	0.592994	0.408138	0.185186
41	C	0.578576	0.422379	0.242775
42	C	0.573206	0.427686	0.425643
43	C	0.558444	0.442267	0.42886
44	C	0.552563	0.448075	0.248452
45	C	0.537759	0.462697	0.194562
46	C	0.527422	0.472906	0.332253
47	N	0.513637	0.486522	0.296146
48	C	0.509092	0.491013	0.113207
49	C	0.518807	0.481419	0.962504
50	C	0.53303	0.46737	0.005838
51	C	0.514402	0.485772	0.772238
52	C	0.500385	0.499618	0.729709
53	C	0.490614	0.509268	0.877002
54	C	0.476386	0.523323	0.834211
55	C	0.466359	0.533226	0.978174
56	C	0.451418	0.547986	0.932191
57	C	0.44501	0.554317	0.755279
58	C	0.430272	0.568876	0.766937
59	C	0.425438	0.573649	0.952729
60	C	0.411068	0.587843	0.013168
61	C	0.399529	0.59925	0.895424
62	C	0.386976	0.611646	0
63	C	0.388887	0.609746	0.193773
64	S	0.406075	0.592762	0.24988
65	S	0.439082	0.560169	0.1091
66	C	0.471553	0.528093	0.163146
67	N	0.485184	0.514628	0.209811
68	C	0.49486	0.505072	0.070027
69	S	0.56541	0.435382	0.07856
70	C	0.598367	0.402832	0.001437
71	H	0.629544	0.372033	0.218125
72	H	0.579462	0.421508	0.554073
73	H	0.552576	0.448065	0.560651
74	H	0.529758	0.470596	0.48401
75	H	0.540359	0.460133	0.888011
76	H	0.521854	0.478412	0.655727
77	H	0.497166	0.502799	0.580771
78	H	0.473261	0.526411	0.685075
79	H	0.450496	0.548901	0.620462
80	H	0.423636	0.575432	0.642324
81	H	0.40008	0.598715	0.740961
82	H	0.381152	0.617382	0.305339
83	H	0.464863	0.534701	0.287869
84	H	0.592055	0.409069	0.873622
85	C	0.611169	0.223152	0
86	C	0.616794	0.234419	0.179043
87	S	0.604443	0.209672	0.351132
88	C	0.591419	0.183581	0.185186
89	C	0.577202	0.155098	0.242775
90	C	0.571904	0.144486	0.425643
91	C	0.557348	0.115323	0.42886
92	C	0.551551	0.103706	0.248452
93	C	0.536954	0.074461	0.194562
94	C	0.526762	0.054041	0.332253
95	N	0.513169	0.026807	0.296146
96	C	0.508686	0.017827	0.113207
97	C	0.518264	0.037017	0.962504
98	C	0.532289	0.065116	0.005838
99	C	0.513918	0.028314	0.772238
100	C	0.500096	0.000621	0.729709
101	C	0.490462	0.981319	0.877002
102	C	0.476431	0.953209	0.834211
103	C	0.466546	0.933403	0.978174
104	C	0.451811	0.903883	0.932191
105	C	0.44549	0.891222	0.755279
106	C	0.430956	0.862105	0.766937
107	C	0.426192	0.852557	0.952729
108	C	0.412022	0.824168	0.013168
109	C	0.400634	0.801362	0.895424
110	C	0.38826	0.776566	0
111	C	0.390157	0.780355	0.193773
112	S	0.407112	0.814317	0.24988
113	S	0.439649	0.879515	0.1091
114	C	0.471669	0.943665	0.163146
115	N	0.485111	0.970596	0.209811
116	C	0.494652	0.98971	0.070027
117	S	0.564222	0.129089	0.07856
118	C	0.596716	0.194195	0.001437
119	H	0.627462	0.255791	0.218125
120	H	0.578072	0.156844	0.554073
121	H	0.55156	0.103729	0.560651
122	H	0.529068	0.058658	0.48401
123	H	0.539513	0.079593	0.888011
124	H	0.521266	0.043035	0.655727
125	H	0.49692	0.99426	0.580771
126	H	0.473349	0.947035	0.685075
127	H	0.450898	0.902057	0.620462
128	H	0.424412	0.848994	0.642324
129	H	0.401169	0.802442	0.740961
130	H	0.382534	0.765078	0.305339
131	H	0.465073	0.93045	0.287869
132	H	0.59049	0.181723	0.873622
133	C	0.77538	0.388071	0
134	C	0.764053	0.382438	0.179043
135	S	0.788931	0.394813	0.351132
136	C	0.815161	0.407857	0.185186
137	C	0.843795	0.422099	0.242775
138	C	0.854463	0.427404	0.425643
139	C	0.883781	0.441986	0.42886
140	C	0.89546	0.447796	0.248452
141	C	0.92486	0.462418	0.194562
142	C	0.945389	0.47263	0.332253
143	N	0.972768	0.486247	0.296146
144	C	0.981795	0.490736	0.113207
145	C	0.962503	0.48114	0.962504
146	C	0.934255	0.46709	0.005838
147	C	0.971253	0.485491	0.772238
148	C	0.999093	0.499337	0.729709
149	C	0.018498	0.508989	0.877002
150	C	0.046756	0.523044	0.834211
151	C	0.066669	0.532948	0.978174
152	C	0.096345	0.547707	0.932191
153	C	0.109073	0.554037	0.755279
154	C	0.138345	0.568596	0.766937
155	C	0.147943	0.573371	0.952729
156	C	0.176484	0.587566	0.013168
157	C	0.19941	0.598964	0.895424
158	C	0.224338	0.611364	0
159	C	0.220529	0.609476	0.193773
160	S	0.186387	0.592498	0.24988
161	S	0.120843	0.559893	0.1091
162	C	0.056351	0.527818	0.163146
163	N	0.029278	0.514353	0.209811
164	C	0.010062	0.504795	0.070027
165	S	0.869942	0.435105	0.07856
166	C	0.804491	0.402549	0.001437
167	H	0.742567	0.371752	0.218125
168	H	0.84204	0.421224	0.554073
169	H	0.895437	0.447783	0.560651
170	H	0.940748	0.470322	0.48401
171	H	0.919701	0.459851	0.888011
172	H	0.956453	0.47813	0.655727
173	H	0.005488	0.502517	0.580771
174	H	0.052963	0.52613	0.685075
175	H	0.09818	0.548618	0.620462
176	H	0.151525	0.57515	0.642324
177	H	0.198325	0.59842	0.740961
178	H	0.235887	0.617117	0.305339
179	H	0.069637	0.534426	0.287869
180	H	0.817028	0.408784	0.873622
