data_C90H36N12O6S18_2023-05-15_15:02:14
#******************************************
#
# CIF file created by Zeo++
# Zeo++ is an open source package to
# analyze microporous materials
#
#*******************************************

_cell_length_a		54.9009   
_cell_length_b		55.1994   
_cell_length_c		7   
_cell_angle_alpha		90   
_cell_angle_beta		90   
_cell_angle_gamma		119.764   

_symmetry_space_group_name_H-M		'P1'
_symmetry_Int_Tables_number		1
_symmetry_cell_setting		Monoclinic

loop_
_symmetry_equiv_pos_as_xyz
'+x,+y,+z'

loop_
_atom_site_label
_atom_site_type_symbol
_atom_site_fract_x
_atom_site_fract_y
_atom_site_fract_z
1	C	0.361567	0.672572	0.999995
2	O	0.386319	0.676914	0.999991
3	C	0.339185	0.643553	0.999998
4	C	0.343524	0.622163	0
5	N	0.371232	0.627165	0
6	C	0.310559	0.638402	3e-06
7	O	0.290444	0.613391	5e-06
8	C	0.303689	0.66072	6e-06
9	C	0.277346	0.655334	5e-06
10	N	0.255567	0.626877	0
11	C	0.327147	0.689507	4e-06
12	O	0.321687	0.708806	7e-06
13	C	0.356234	0.695951	0.999999
14	C	0.376914	0.722213	0.999998
15	N	0.372766	0.745525	0
16	H	0.32639	0.601341	1e-06
17	H	0.271794	0.671319	8e-06
18	H	0.397825	0.725963	0.999997
19	C	0.638433	0.327428	0.999995
20	O	0.613681	0.323086	0.999991
21	C	0.660815	0.356447	0.999998
22	C	0.656476	0.377837	0
23	N	0.628768	0.372835	0
24	C	0.689441	0.361598	3e-06
25	O	0.709556	0.386609	5e-06
26	C	0.696311	0.33928	6e-06
27	C	0.722654	0.344666	5e-06
28	N	0.744433	0.373123	0
29	C	0.672853	0.310493	4e-06
30	O	0.678313	0.291194	7e-06
31	C	0.643766	0.304049	0.999999
32	C	0.623086	0.277787	0.999998
33	N	0.627234	0.254475	0
34	H	0.67361	0.398659	1e-06
35	H	0.728206	0.328681	8e-06
36	H	0.602175	0.274037	0.999997
37	C	0.388137	0.61047	0
38	C	0.381037	0.617483	0.170429
39	S	0.39252	0.606142	0.358697
40	C	0.407153	0.591691	0.211494
41	C	0.421391	0.577629	0.288437
42	C	0.425519	0.573553	0.478039
43	C	0.440491	0.558767	0.50109
44	C	0.447664	0.551684	0.329094
45	C	0.46286	0.536676	0.306941
46	N	0.471255	0.528386	0.457311
47	C	0.485253	0.514562	0.400799
48	C	0.497043	0.502919	0.521774
49	C	0.51066	0.489472	0.445598
50	C	0.512874	0.487285	0.248951
51	C	0.501085	0.498926	0.127993
52	C	0.487469	0.512373	0.204141
53	S	0.471406	0.528235	0.090143
54	N	0.526863	0.473469	0.192549
55	C	0.535275	0.465163	0.342485
56	C	0.550516	0.450112	0.326267
57	C	0.560521	0.440233	0.470115
58	C	0.574654	0.426275	0.398727
59	C	0.575323	0.425613	0.20126
60	C	0.588045	0.41305	0.085159
61	C	0.601878	0.399392	0.150882
62	C	0.611863	0.38953	0
63	C	0.605779	0.395535	0.822555
64	S	0.587771	0.413316	0.838668
65	S	0.558579	0.442149	0.106727
66	S	0.526729	0.473604	0.559596
67	S	0.435986	0.563216	0.142266
68	C	0.403029	0.595763	0.021334
69	H	0.369754	0.628626	0.194604
70	H	0.418227	0.580755	0.597362
71	H	0.445802	0.553522	0.638383
72	H	0.495411	0.504532	0.675402
73	H	0.502725	0.497306	0.974347
74	H	0.558012	0.442712	0.621134
75	H	0.583857	0.417188	0.490695
76	H	0.604703	0.396604	0.300741
77	H	0.610905	0.39047	0.684535
78	H	0.410374	0.588509	0.902663
79	C	0.389432	0.778916	0
80	C	0.382431	0.764891	0.170429
81	S	0.393752	0.787572	0.358697
82	C	0.408178	0.816474	0.211494
83	C	0.422215	0.844597	0.288437
84	C	0.426284	0.852749	0.478039
85	C	0.441044	0.88232	0.50109
86	C	0.448115	0.896487	0.329094
87	C	0.463097	0.926503	0.306941
88	N	0.471372	0.943083	0.457311
89	C	0.485171	0.97073	0.400799
90	C	0.496794	0.994017	0.521774
91	C	0.510218	0.020912	0.445598
92	C	0.512401	0.025285	0.248951
93	C	0.500781	0.002002	0.127993
94	C	0.487357	0.975108	0.204141
95	S	0.471523	0.943383	0.090143
96	N	0.526193	0.052916	0.192549
97	C	0.534485	0.069529	0.342485
98	C	0.549508	0.09963	0.326267
99	C	0.559371	0.119391	0.470115
100	C	0.573304	0.147306	0.398727
101	C	0.573965	0.148628	0.20126
102	C	0.586506	0.173754	0.085159
103	C	0.60014	0.201073	0.150882
104	C	0.609985	0.220796	0
105	C	0.603991	0.208783	0.822555
106	S	0.586241	0.173219	0.838668
107	S	0.557458	0.115557	0.106727
108	S	0.526059	0.052649	0.559596
109	S	0.436603	0.873423	0.142266
110	C	0.404113	0.808329	0.021334
111	H	0.371308	0.742606	0.194604
112	H	0.419095	0.838346	0.597362
113	H	0.44628	0.892811	0.638383
114	H	0.495184	0.990792	0.675402
115	H	0.502398	0.005241	0.974347
116	H	0.556896	0.114434	0.621134
117	H	0.582376	0.165481	0.490695
118	H	0.602923	0.206651	0.300741
119	H	0.609046	0.21891	0.684535
120	H	0.411354	0.822837	0.902663
121	C	0.221995	0.610181	0
122	C	0.236096	0.617193	0.170429
123	S	0.213292	0.605853	0.358697
124	C	0.184234	0.591403	0.211494
125	C	0.155958	0.577341	0.288437
126	C	0.147761	0.573265	0.478039
127	C	0.11803	0.55848	0.50109
128	C	0.103786	0.551396	0.329094
129	C	0.073607	0.536389	0.306941
130	N	0.056937	0.528098	0.457311
131	C	0.02914	0.514275	0.400799
132	C	0.005727	0.502631	0.521774
133	C	0.978686	0.489184	0.445598
134	C	0.974289	0.486998	0.248951
135	C	0.997698	0.49864	0.127993
136	C	0.024738	0.512086	0.204141
137	S	0.056635	0.527949	0.090143
138	N	0.946508	0.473182	0.192549
139	C	0.929804	0.464875	0.342485
140	C	0.89954	0.449825	0.326267
141	C	0.879672	0.439944	0.470115
142	C	0.851606	0.425986	0.398727
143	C	0.850276	0.425326	0.20126
144	C	0.825014	0.412763	0.085159
145	C	0.797547	0.399102	0.150882
146	C	0.777717	0.389241	0
147	C	0.789795	0.39525	0.822555
148	S	0.825552	0.413033	0.838668
149	S	0.883527	0.441862	0.106727
150	S	0.946777	0.473315	0.559596
151	S	0.126975	0.562929	0.142266
152	C	0.192423	0.595475	0.021334
153	H	0.258502	0.628336	0.194604
154	H	0.162242	0.580466	0.597362
155	H	0.107482	0.553234	0.638383
156	H	0.008969	0.504243	0.675402
157	H	0.994441	0.49702	0.974347
158	H	0.884656	0.442422	0.621134
159	H	0.833332	0.416898	0.490695
160	H	0.791938	0.396312	0.300741
161	H	0.779613	0.390187	0.684535
162	H	0.177836	0.588222	0.902663
