data_C72H42N6O6S6_2023-05-11_03:31:09
#******************************************
#
# CIF file created by Zeo++
# Zeo++ is an open source package to
# analyze microporous materials
#
#*******************************************

_cell_length_a		35.2294   
_cell_length_b		35.5281   
_cell_length_c		7   
_cell_angle_alpha		90   
_cell_angle_beta		90   
_cell_angle_gamma		119.633   

_symmetry_space_group_name_H-M		'P1'
_symmetry_Int_Tables_number		1
_symmetry_cell_setting		Monoclinic

loop_
_symmetry_equiv_pos_as_xyz
'+x,+y,+z'

loop_
_atom_site_label
_atom_site_type_symbol
_atom_site_fract_x
_atom_site_fract_y
_atom_site_fract_z
1	C	0.377307	0.67583	0.999995
2	O	0.415863	0.682568	0.999991
3	C	0.342547	0.630802	0.999998
4	C	0.349397	0.597613	0
5	N	0.392555	0.605374	0
6	C	0.297958	0.62281	3e-06
7	O	0.266715	0.584001	5e-06
8	C	0.28716	0.657439	6e-06
9	C	0.24613	0.649082	5e-06
10	N	0.212307	0.604926	0
11	C	0.323598	0.702107	4e-06
12	O	0.315011	0.732052	7e-06
13	C	0.3689	0.712106	0.999999
14	C	0.401019	0.752855	0.999998
15	N	0.394459	0.789028	0
16	H	0.322782	0.565303	1e-06
17	H	0.237412	0.673886	8e-06
18	H	0.433591	0.758674	0.999997
19	C	0.622693	0.32417	0.999995
20	O	0.584137	0.317432	0.999991
21	C	0.657453	0.369198	0.999998
22	C	0.650603	0.402387	0
23	N	0.607445	0.394626	0
24	C	0.702042	0.37719	3e-06
25	O	0.733285	0.415999	5e-06
26	C	0.71284	0.342561	6e-06
27	C	0.75387	0.350918	5e-06
28	N	0.787693	0.395074	0
29	C	0.676402	0.297893	4e-06
30	O	0.684989	0.267948	7e-06
31	C	0.6311	0.287894	0.999999
32	C	0.598981	0.247145	0.999998
33	N	0.605541	0.210972	0
34	H	0.677218	0.434697	1e-06
35	H	0.762588	0.326114	8e-06
36	H	0.566409	0.241326	0.999997
37	C	0.58103	0.420531	0
38	C	0.566761	0.416601	0.185178
39	C	0.599901	0.421969	0.318208
40	C	0.596584	0.419836	0.522382
41	C	0.57391	0.43179	0.637919
42	C	0.548038	0.452104	0.5832
43	C	0.50376	0.431928	0.63112
44	C	0.478599	0.45094	0.581143
45	C	0.497303	0.490328	0.482292
46	C	0.470007	0.509629	0.434607
47	C	0.471176	0.527548	0.264025
48	C	0.445446	0.546718	0.206462
49	C	0.416936	0.552429	0.322381
50	S	0.391909	0.576568	0.204129
51	C	0.41897	0.579469	0
52	C	0.446534	0.562725	0.017539
53	C	0.54189	0.51096	0.438526
54	C	0.567077	0.492003	0.488717
55	C	0.637309	0.428482	0.22542
56	S	0.632815	0.429639	0.981794
57	H	0.534312	0.410227	0.223167
58	H	0.615162	0.406832	0.593586
59	H	0.574633	0.426805	0.791054
60	H	0.488371	0.401113	0.706348
61	H	0.444137	0.434449	0.618832
62	H	0.447807	0.507768	0.54658
63	H	0.49332	0.527346	0.155848
64	H	0.40913	0.543928	0.471078
65	H	0.466445	0.561846	0.901577
66	H	0.557658	0.542139	0.366329
67	H	0.601656	0.508634	0.453116
68	H	0.66744	0.433107	0.287475
69	C	0.578796	0.158714	0
70	C	0.58285	0.148518	0.185178
71	C	0.577212	0.17593	0.318208
72	C	0.57938	0.174771	0.522382
73	C	0.567536	0.140504	0.637919
74	C	0.547316	0.094779	0.5832
75	C	0.567915	0.071062	0.63112
76	C	0.548997	0.027332	0.581143
77	C	0.509283	0.006713	0.482292
78	C	0.490091	0.960587	0.434607
79	C	0.472077	0.943955	0.264025
80	C	0.453006	0.899506	0.206462
81	C	0.447478	0.865671	0.322381
82	S	0.423407	0.816983	0.204129
83	C	0.420293	0.840839	0
84	C	0.436914	0.884692	0.017539
85	C	0.488224	0.030284	0.438526
86	C	0.507086	0.073985	0.488717
87	C	0.570393	0.206423	0.22542
88	S	0.569263	0.200834	0.981794
89	H	0.589494	0.122787	0.223167
90	H	0.592309	0.206033	0.593586
91	H	0.572539	0.146166	0.791054
92	H	0.59899	0.086445	0.706348
93	H	0.565821	0.009654	0.618832
94	H	0.492125	0.940502	0.54658
95	H	0.472117	0.966032	0.155848
96	H	0.456076	0.866396	0.471078
97	H	0.43765	0.905235	0.901577
98	H	0.456779	0.014912	0.366329
99	H	0.49012	0.091638	0.453116
100	H	0.565523	0.231601	0.287475
101	C	0.839496	0.420084	0
102	C	0.84971	0.434209	0.185178
103	C	0.822209	0.401429	0.318208
104	C	0.823357	0.404722	0.522382
105	C	0.857876	0.427035	0.637919
106	C	0.903968	0.452446	0.5832
107	C	0.927647	0.496339	0.63112
108	C	0.971725	0.521057	0.581143
109	C	0.992736	0.502288	0.482292
110	C	0.039223	0.529113	0.434607
111	C	0.056068	0.527826	0.264025
112	C	0.10087	0.553105	0.206462
113	C	0.134908	0.581229	0.322381
114	S	0.184006	0.605778	0.204129
115	C	0.160058	0.579021	0
116	C	0.115873	0.551912	0.017539
117	C	0.969207	0.458086	0.438526
118	C	0.925158	0.433342	0.488717
119	C	0.79162	0.364424	0.22542
120	S	0.797244	0.368856	0.981794
121	H	0.875515	0.466315	0.223167
122	H	0.791851	0.386464	0.593586
123	H	0.852149	0.426357	0.791054
124	H	0.911961	0.511771	0.706348
125	H	0.989364	0.555226	0.618832
126	H	0.05939	0.551059	0.54658
127	H	0.033885	0.505951	0.155848
128	H	0.134115	0.589005	0.471078
129	H	0.095227	0.532248	0.901577
130	H	0.984884	0.442277	0.366329
131	H	0.907545	0.399057	0.453116
132	H	0.766358	0.334621	0.287475
