data_C78H48N12O6_2023-05-11_07:26:06
#******************************************
#
# CIF file created by Zeo++
# Zeo++ is an open source package to
# analyze microporous materials
#
#*******************************************

_cell_length_a		43.3605   
_cell_length_b		43.6591   
_cell_length_c		7   
_cell_angle_alpha		90   
_cell_angle_beta		90   
_cell_angle_gamma		119.701   

_symmetry_space_group_name_H-M		'P1'
_symmetry_Int_Tables_number		1
_symmetry_cell_setting		Monoclinic

loop_
_symmetry_equiv_pos_as_xyz
'+x,+y,+z'

loop_
_atom_site_label
_atom_site_type_symbol
_atom_site_fract_x
_atom_site_fract_y
_atom_site_fract_z
1	C	0.369071	0.674128	0.999995
2	O	0.400405	0.679615	0.999991
3	C	0.340779	0.637462	0.999998
4	C	0.346307	0.610435	0
5	N	0.381381	0.616755	0
6	C	0.304543	0.630954	3e-06
7	O	0.279114	0.599351	5e-06
8	C	0.295808	0.659152	6e-06
9	C	0.262463	0.652347	5e-06
10	N	0.234933	0.616391	0
11	C	0.325464	0.695526	4e-06
12	O	0.31852	0.719911	7e-06
13	C	0.362282	0.703668	0.999999
14	C	0.388424	0.736851	0.999998
15	N	0.383134	0.766308	0
16	H	0.324646	0.584125	1e-06
17	H	0.255408	0.672545	8e-06
18	H	0.414894	0.74159	0.999997
19	C	0.630929	0.325872	0.999995
20	O	0.599595	0.320385	0.999991
21	C	0.659221	0.362538	0.999998
22	C	0.653693	0.389565	0
23	N	0.618619	0.383245	0
24	C	0.695457	0.369046	3e-06
25	O	0.720886	0.400649	5e-06
26	C	0.704192	0.340848	6e-06
27	C	0.737537	0.347653	5e-06
28	N	0.765067	0.383609	0
29	C	0.674536	0.304474	4e-06
30	O	0.68148	0.280089	7e-06
31	C	0.637718	0.296332	0.999999
32	C	0.611576	0.263149	0.999998
33	N	0.616866	0.233692	0
34	H	0.675354	0.415875	1e-06
35	H	0.744592	0.327455	8e-06
36	H	0.585106	0.25841	0.999997
37	C	0.402813	0.59566	0
38	C	0.404522	0.593978	0.190112
39	C	0.4233	0.575497	0.238477
40	C	0.4333	0.565656	0.078272
41	C	0.452908	0.546355	0.061828
42	C	0.464141	0.535304	0.221258
43	C	0.482755	0.516978	0.198961
44	C	0.490183	0.509656	0.016306
45	C	0.509807	0.490335	0.983748
46	C	0.517236	0.483015	0.801091
47	C	0.535851	0.464691	0.778786
48	C	0.547085	0.453639	0.938213
49	C	0.566695	0.434341	0.921757
50	C	0.576696	0.424503	0.761542
51	C	0.595478	0.406024	0.80989
52	C	0.597187	0.40434	0
53	C	0.5791	0.422133	0.093206
54	C	0.53848	0.462114	0.114841
55	N	0.520456	0.479856	0.141314
56	N	0.479534	0.520134	0.858738
57	C	0.461512	0.537878	0.885204
58	C	0.420898	0.577863	0.906812
59	H	0.393795	0.604533	0.293488
60	H	0.427959	0.570909	0.384471
61	H	0.458784	0.540587	0.365479
62	H	0.491333	0.508541	0.324383
63	H	0.508659	0.491454	0.675673
64	H	0.54121	0.459411	0.634562
65	H	0.572036	0.429092	0.615551
66	H	0.606205	0.395473	0.706504
67	H	0.59778	0.444516	0.180483
68	H	0.556608	0.403496	0.180464
69	H	0.545963	0.45475	0.247994
70	H	0.454027	0.545239	0.752051
71	H	0.402216	0.555479	0.819543
72	H	0.44339	0.596498	0.819548
73	C	0.404183	0.808498	0
74	C	0.405861	0.811862	0.190112
75	C	0.424301	0.848826	0.238477
76	C	0.43412	0.868511	0.078272
77	C	0.453378	0.907111	0.061828
78	C	0.464405	0.929219	0.221258
79	C	0.48269	0.965867	0.198961
80	C	0.489996	0.980499	0.016306
81	C	0.509274	0.019136	0.983748
82	C	0.516578	0.033768	0.801091
83	C	0.534861	0.070415	0.778786
84	C	0.545889	0.092524	0.938213
85	C	0.565144	0.131124	0.921757
86	C	0.57496	0.150806	0.761542
87	C	0.593397	0.187771	0.80989
88	C	0.595078	0.191138	0
89	C	0.577325	0.155542	0.093206
90	C	0.537433	0.075579	0.114841
91	N	0.51973	0.040097	0.141314
92	N	0.479541	0.959539	0.858738
93	C	0.461837	0.924057	0.885204
94	C	0.42194	0.844096	0.906812
95	H	0.395329	0.790749	0.293488
96	H	0.428879	0.858	0.384471
97	H	0.459134	0.918663	0.365479
98	H	0.491109	0.982746	0.324383
99	H	0.508158	0.016887	0.675673
100	H	0.540129	0.08097	0.634562
101	H	0.570381	0.141631	0.615551
102	H	0.603926	0.208882	0.706504
103	H	0.554742	0.15179	0.180483
104	H	0.596169	0.151796	0.180464
105	H	0.54478	0.090309	0.247994
106	H	0.454491	0.909328	0.752051
107	H	0.444523	0.847847	0.819543
108	H	0.403098	0.847845	0.819548
109	C	0.192453	0.595295	0
110	C	0.189066	0.593614	0.190112
111	C	0.151848	0.57513	0.238477
112	C	0.132028	0.565287	0.078272
113	C	0.093162	0.545987	0.061828
114	C	0.070902	0.53493	0.221258
115	C	0.034003	0.516609	0.198961
116	C	0.01927	0.509298	0.016306
117	C	0.980367	0.489982	0.983748
118	C	0.965635	0.48267	0.801091
119	C	0.928736	0.464347	0.778786
120	C	0.906475	0.45329	0.938213
121	C	0.86761	0.433988	0.921757
122	C	0.847792	0.424144	0.761542
123	C	0.810574	0.405658	0.80989
124	C	0.807184	0.403975	0
125	C	0.843024	0.421778	0.093206
126	C	0.923536	0.46176	0.114841
127	N	0.959263	0.479501	0.141314
128	N	0.040374	0.51978	0.858738
129	C	0.0761	0.537519	0.885204
130	C	0.156611	0.577495	0.906812
131	H	0.210324	0.604171	0.293488
132	H	0.142611	0.570545	0.384471
133	H	0.081531	0.540204	0.365479
134	H	0.017007	0.508167	0.324383
135	H	0.982631	0.491112	0.675673
136	H	0.918109	0.459073	0.634562
137	H	0.857031	0.428731	0.615551
138	H	0.789318	0.395099	0.706504
139	H	0.846926	0.403147	0.180483
140	H	0.846671	0.444162	0.180464
141	H	0.908706	0.454394	0.247994
142	H	0.09093	0.544886	0.752051
143	H	0.152709	0.596127	0.819543
144	H	0.15296	0.555111	0.819548
