data_C84H36N12O6S15_2023-05-12_17:15:07
#******************************************
#
# CIF file created by Zeo++
# Zeo++ is an open source package to
# analyze microporous materials
#
#*******************************************

_cell_length_a		48.2856   
_cell_length_b		48.5841   
_cell_length_c		7   
_cell_angle_alpha		90   
_cell_angle_beta		90   
_cell_angle_gamma		119.732   

_symmetry_space_group_name_H-M		'P1'
_symmetry_Int_Tables_number		1
_symmetry_cell_setting		Monoclinic

loop_
_symmetry_equiv_pos_as_xyz
'+x,+y,+z'

loop_
_atom_site_label
_atom_site_type_symbol
_atom_site_fract_x
_atom_site_fract_y
_atom_site_fract_z
1	C	0.36543	0.673374	0.999995
2	O	0.393571	0.678306	0.999991
3	C	0.340003	0.640414	0.999998
4	C	0.344953	0.61612	0
5	N	0.376453	0.621801	0
6	C	0.30746	0.634564	3e-06
7	O	0.284608	0.606156	5e-06
8	C	0.299631	0.659912	6e-06
9	C	0.269684	0.653795	5e-06
10	N	0.244942	0.621474	0
11	C	0.326283	0.692608	4e-06
12	O	0.320061	0.714528	7e-06
13	C	0.35935	0.699928	0.999999
14	C	0.382843	0.729756	0.999998
15	N	0.37811	0.756234	0
16	H	0.325487	0.59247	1e-06
17	H	0.263359	0.671951	8e-06
18	H	0.406616	0.734015	0.999997
19	C	0.63457	0.326626	0.999995
20	O	0.606429	0.321694	0.999991
21	C	0.659997	0.359586	0.999998
22	C	0.655047	0.38388	0
23	N	0.623547	0.378199	0
24	C	0.69254	0.365436	3e-06
25	O	0.715392	0.393844	5e-06
26	C	0.700369	0.340088	6e-06
27	C	0.730316	0.346205	5e-06
28	N	0.755058	0.378526	0
29	C	0.673717	0.307392	4e-06
30	O	0.679939	0.285472	7e-06
31	C	0.64065	0.300072	0.999999
32	C	0.617157	0.270244	0.999998
33	N	0.62189	0.243766	0
34	H	0.674513	0.40753	1e-06
35	H	0.736641	0.328049	8e-06
36	H	0.593384	0.265985	0.999997
37	C	0.604313	0.397161	0
38	C	0.61083	0.393816	0.186227
39	C	0.603841	0.41294	0.310071
40	C	0.592172	0.430022	0.213726
41	C	0.583124	0.451684	0.297479
42	C	0.592851	0.466693	0.472426
43	C	0.579458	0.486378	0.514734
44	C	0.559619	0.486116	0.371762
45	C	0.541443	0.502835	0.361548
46	C	0.539625	0.518355	0.195426
47	C	0.522176	0.534625	0.185034
48	C	0.504747	0.53705	0.339726
49	C	0.486829	0.554009	0.328567
50	C	0.485491	0.57484	0.457333
51	C	0.465062	0.586501	0.395619
52	C	0.45093	0.574358	0.220689
53	C	0.428999	0.580888	0.114969
54	C	0.411655	0.565815	0.952271
55	C	0.392336	0.578521	0.885546
56	C	0.395687	0.602839	0
57	S	0.421252	0.610514	0.183468
58	S	0.462973	0.548816	0.134961
59	C	0.505716	0.522045	0.512876
60	N	0.491181	0.521064	0.678892
61	S	0.499663	0.500332	0.831492
62	N	0.52259	0.491768	0.697645
63	C	0.524497	0.504529	0.524062
64	S	0.557525	0.461719	0.188521
65	S	0.590157	0.422511	0.972116
66	H	0.620032	0.378644	0.232964
67	H	0.607094	0.413812	0.463524
68	H	0.609045	0.463972	0.567351
69	H	0.58425	0.500069	0.645014
70	H	0.552462	0.518219	0.06742
71	H	0.522662	0.546017	0.049737
72	H	0.498537	0.581531	0.59101
73	H	0.461037	0.603021	0.478556
74	H	0.412508	0.546328	0.882653
75	H	0.377037	0.570057	0.761069
76	C	0.602302	0.205514	0
77	C	0.605623	0.2153	0.186227
78	C	0.586471	0.189352	0.310071
79	C	0.569393	0.160796	0.213726
80	C	0.547704	0.130283	0.297479
81	C	0.53259	0.124996	0.472426
82	C	0.512909	0.092142	0.514734
83	C	0.513279	0.072739	0.371762
84	C	0.4966	0.038095	0.361548
85	C	0.481036	0.020856	0.195426
86	C	0.464803	0.987379	0.185034
87	C	0.462464	0.967692	0.339726
88	C	0.445542	0.933063	0.328567
89	C	0.424647	0.911019	0.457333
90	C	0.413054	0.879172	0.395619
91	C	0.425317	0.877243	0.220689
92	C	0.418881	0.849009	0.114969
93	C	0.434101	0.84681	0.952271
94	C	0.421455	0.815023	0.885546
95	C	0.397034	0.794159	0
96	S	0.389194	0.811864	0.183468
97	S	0.450882	0.914583	0.134961
98	C	0.477516	0.983576	0.512876
99	N	0.478578	0.970144	0.678892
100	S	0.499337	0.999172	0.831492
101	N	0.507807	0.030415	0.697645
102	C	0.494991	0.019613	0.524062
103	S	0.537772	0.094928	0.188521
104	S	0.576941	0.16627	0.972116
105	H	0.620799	0.239512	0.232964
106	H	0.585579	0.19171	0.463524
107	H	0.535233	0.143754	0.567351
108	H	0.499144	0.083275	0.645014
109	H	0.481103	0.033715	0.06742
110	H	0.453369	0.97653	0.049737
111	H	0.417862	0.917295	0.59101
112	H	0.396499	0.858752	0.478556
113	H	0.453651	0.867036	0.882653
114	H	0.43003	0.808278	0.761069
115	C	0.79289	0.396834	0
116	C	0.783051	0.390392	0.186227
117	C	0.809193	0.397216	0.310071
118	C	0.83794	0.40869	0.213726
119	C	0.868677	0.417542	0.297479
120	C	0.874064	0.40782	0.472426
121	C	0.907138	0.420988	0.514734
122	C	0.926607	0.440654	0.371762
123	C	0.961462	0.458579	0.361548
124	C	0.978844	0.460297	0.195426
125	C	0.012526	0.477505	0.185034
126	C	0.032294	0.494767	0.339726
127	C	0.067134	0.512436	0.328567
128	C	0.089368	0.51365	0.457333
129	C	0.121388	0.533835	0.395619
130	C	0.123258	0.547908	0.220689
131	C	0.151624	0.569611	0.114969
132	C	0.153749	0.586884	0.952271
133	C	0.185715	0.605964	0.885546
134	C	0.206783	0.602511	0
135	S	0.189058	0.57713	0.183468
136	S	0.085649	0.536109	0.134961
137	C	0.016273	0.493888	0.512876
138	N	0.029746	0.5083	0.678892
139	S	0.000505	0.500004	0.831492
140	N	0.969108	0.477326	0.697645
141	C	0.980016	0.475366	0.524062
142	S	0.904208	0.442861	0.188521
143	S	0.832407	0.410727	0.972116
144	H	0.758674	0.381352	0.232964
145	H	0.806832	0.393987	0.463524
146	H	0.855226	0.391782	0.567351
147	H	0.91611	0.416164	0.645014
148	H	0.96594	0.447574	0.06742
149	H	0.023474	0.476962	0.049737
150	H	0.083106	0.500683	0.59101
151	H	0.141969	0.537736	0.478556
152	H	0.133347	0.586144	0.882653
153	H	0.192437	0.621173	0.761069
