data_C48H30N12O6_2023-05-30_02:22:37
#******************************************
#
# CIF file created by Zeo++
# Zeo++ is an open source package to
# analyze microporous materials
#
#*******************************************

_cell_length_a		27.4083   
_cell_length_b		27.7071   
_cell_length_c		7   
_cell_angle_alpha		90   
_cell_angle_beta		90   
_cell_angle_gamma		119.529   

_symmetry_space_group_name_H-M		'P1'
_symmetry_Int_Tables_number		1
_symmetry_cell_setting		Monoclinic

loop_
_symmetry_equiv_pos_as_xyz
'+x,+y,+z'

loop_
_atom_site_label
_atom_site_type_symbol
_atom_site_fract_x
_atom_site_fract_y
_atom_site_fract_z
1	C	0.38983	0.678404	0.999995
2	O	0.43937	0.687035	0.999991
3	C	0.345272	0.620726	0.999998
4	C	0.354166	0.578212	0
5	N	0.40962	0.588154	0
6	C	0.287982	0.610488	3e-06
7	O	0.247928	0.560776	5e-06
8	C	0.274008	0.654846	6e-06
9	C	0.221293	0.644142	5e-06
10	N	0.177938	0.58758	0
11	C	0.320724	0.712064	4e-06
12	O	0.309605	0.750423	7e-06
13	C	0.378926	0.724872	0.999999
14	C	0.420101	0.777071	0.999998
15	N	0.411571	0.823406	0
16	H	0.320044	0.536825	1e-06
17	H	0.21002	0.675914	8e-06
18	H	0.461951	0.784524	0.999997
19	C	0.61017	0.321596	0.999995
20	O	0.56063	0.312965	0.999991
21	C	0.654728	0.379274	0.999998
22	C	0.645834	0.421788	0
23	N	0.59038	0.411846	0
24	C	0.712018	0.389512	3e-06
25	O	0.752072	0.439224	5e-06
26	C	0.725992	0.345154	6e-06
27	C	0.778707	0.355858	5e-06
28	N	0.822062	0.41242	0
29	C	0.679276	0.287936	4e-06
30	O	0.690395	0.249577	7e-06
31	C	0.621074	0.275128	0.999999
32	C	0.579899	0.222929	0.999998
33	N	0.588429	0.176594	0
34	H	0.679956	0.463175	1e-06
35	H	0.78998	0.324086	8e-06
36	H	0.538049	0.215476	0.999997
37	C	0.443642	0.55497	0
38	C	0.481724	0.547996	0.106957
39	C	0.453435	0.518895	0.274819
40	C	0.474655	0.502439	0.432866
41	C	0.51202	0.484316	0.435097
42	C	0.538059	0.47265	0.279239
43	C	0.592017	0.480987	0.28524
44	N	0.602885	0.464643	0.112801
45	C	0.556358	0.44503	0
46	C	0.515116	0.448863	0.098849
47	C	0.399521	0.510602	0.265978
48	N	0.393906	0.532168	0.096198
49	H	0.524991	0.562229	0.068942
50	H	0.458568	0.50571	0.571773
51	H	0.523811	0.476775	0.575999
52	H	0.623747	0.497467	0.395639
53	H	0.639259	0.466315	0.074704
54	H	0.473222	0.435995	0.047415
55	H	0.36459	0.49094	0.364055
56	H	0.358836	0.531792	0.049364
57	C	0.444638	0.889774	0
58	C	0.451295	0.934177	0.106957
59	C	0.480842	0.935151	0.274819
60	C	0.497199	0.972344	0.432866
61	C	0.515081	0.027084	0.435097
62	C	0.526573	0.064277	0.279239
63	C	0.517675	0.109145	0.28524
64	N	0.534017	0.136036	0.112801
65	C	0.55419	0.109654	0
66	C	0.550723	0.065251	0.098849
67	C	0.489696	0.890283	0.265978
68	N	0.46805	0.863392	0.096198
69	H	0.436565	0.962678	0.068942
70	H	0.49406	0.953265	0.571773
71	H	0.522557	0.046163	0.575999
72	H	0.500794	0.124062	0.395639
73	H	0.531991	0.170192	0.074704
74	H	0.564066	0.036749	0.047415
75	H	0.509808	0.875367	0.364055
76	H	0.468759	0.829236	0.049364
77	C	0.110849	0.554396	0
78	C	0.06611	0.516967	0.106957
79	C	0.064851	0.545094	0.274819
80	C	0.027274	0.524358	0.432866
81	C	0.972028	0.48774	0.435097
82	C	0.934497	0.462213	0.279239
83	C	0.889437	0.409008	0.28524
84	N	0.862226	0.398462	0.112801
85	C	0.88858	0.444456	0
86	C	0.933289	0.485026	0.098849
87	C	0.109911	0.598256	0.265978
88	N	0.137172	0.60358	0.096198
89	H	0.037572	0.474233	0.068942
90	H	0.0465	0.540165	0.571773
91	H	0.952761	0.476202	0.575999
92	H	0.874588	0.377612	0.395639
93	H	0.827878	0.362634	0.074704
94	H	0.96184	0.526396	0.047415
95	H	0.12473	0.632833	0.364055
96	H	0.171532	0.638113	0.049364
