data_C90H42N6O6S18_2023-05-15_13:54:41
#******************************************
#
# CIF file created by Zeo++
# Zeo++ is an open source package to
# analyze microporous materials
#
#*******************************************

_cell_length_a		45.2707   
_cell_length_b		45.5692   
_cell_length_c		7   
_cell_angle_alpha		90   
_cell_angle_beta		90   
_cell_angle_gamma		119.714   

_symmetry_space_group_name_H-M		'P1'
_symmetry_Int_Tables_number		1
_symmetry_cell_setting		Monoclinic

loop_
_symmetry_equiv_pos_as_xyz
'+x,+y,+z'

loop_
_atom_site_label
_atom_site_type_symbol
_atom_site_fract_x
_atom_site_fract_y
_atom_site_fract_z
1	C	0.367565	0.673816	0.999995
2	O	0.397578	0.679074	0.999991
3	C	0.340458	0.638682	0.999998
4	C	0.345746	0.612785	0
5	N	0.379342	0.618841	0
6	C	0.305749	0.632446	3e-06
7	O	0.281386	0.602164	5e-06
8	C	0.29739	0.659466	6e-06
9	C	0.26545	0.652946	5e-06
10	N	0.239073	0.618492	0
11	C	0.325803	0.69432	4e-06
12	O	0.319158	0.717686	7e-06
13	C	0.361069	0.702122	0.999999
14	C	0.386116	0.733918	0.999998
15	N	0.381057	0.762143	0
16	H	0.324993	0.587575	1e-06
17	H	0.258697	0.6723	8e-06
18	H	0.411471	0.738458	0.999997
19	C	0.632435	0.326184	0.999995
20	O	0.602422	0.320926	0.999991
21	C	0.659542	0.361318	0.999998
22	C	0.654254	0.387215	0
23	N	0.620658	0.381159	0
24	C	0.694251	0.367554	3e-06
25	O	0.718614	0.397836	5e-06
26	C	0.70261	0.340534	6e-06
27	C	0.73455	0.347054	5e-06
28	N	0.760927	0.381508	0
29	C	0.674197	0.30568	4e-06
30	O	0.680842	0.282314	7e-06
31	C	0.638931	0.297878	0.999999
32	C	0.613884	0.266082	0.999998
33	N	0.618943	0.237857	0
34	H	0.675007	0.412425	1e-06
35	H	0.741303	0.3277	8e-06
36	H	0.588529	0.261542	0.999997
37	C	0.399864	0.598628	0
38	C	0.384104	0.614149	0.086358
39	S	0.38605	0.612232	0.329429
40	C	0.408175	0.590441	0.319773
41	C	0.418538	0.580234	0.491978
42	C	0.41307	0.585616	0.679858
43	C	0.426906	0.571989	0.813436
44	C	0.442851	0.556287	0.726802
45	C	0.459404	0.539985	0.821956
46	C	0.462296	0.537135	0.016876
47	C	0.480088	0.519613	0.064997
48	C	0.490688	0.509175	0.906568
49	C	0.509316	0.490829	0.906568
50	C	0.519918	0.480393	0.064997
51	C	0.537709	0.46287	0.016876
52	C	0.540599	0.460018	0.821955
53	C	0.55715	0.443714	0.726802
54	C	0.573094	0.428011	0.813436
55	C	0.586929	0.414383	0.679858
56	C	0.581463	0.419766	0.491978
57	C	0.591824	0.409559	0.319773
58	C	0.586307	0.414995	0.131377
59	C	0.600136	0.401372	0
60	C	0.615894	0.385849	0.086358
61	S	0.613947	0.387766	0.329429
62	S	0.55946	0.441438	0.482932
63	S	0.521411	0.478911	0.701738
64	S	0.47859	0.52109	0.701738
65	S	0.440542	0.558564	0.482932
66	C	0.413694	0.585006	0.131377
67	H	0.371579	0.626486	0.020071
68	H	0.399711	0.598772	0.722501
69	H	0.424997	0.573867	0.966647
70	H	0.452179	0.547098	0.122854
71	H	0.48471	0.51506	0.210853
72	H	0.515297	0.484947	0.210853
73	H	0.547828	0.452908	0.122854
74	H	0.575002	0.426132	0.966647
75	H	0.600287	0.401226	0.7225
76	H	0.572925	0.428178	0.08972
77	H	0.628418	0.373511	0.020071
78	H	0.427078	0.571825	0.08972
79	C	0.401228	0.80257	0
80	C	0.385739	0.771526	0.086358
81	S	0.387653	0.77536	0.329429
82	C	0.409398	0.818943	0.319773
83	C	0.419583	0.839356	0.491978
84	C	0.414212	0.828588	0.679858
85	C	0.42781	0.855843	0.813436
86	C	0.443479	0.88725	0.726802
87	C	0.459746	0.919856	0.821956
88	C	0.46259	0.925554	0.016876
89	C	0.480075	0.9606	0.064997
90	C	0.490491	0.981479	0.906568
91	C	0.508798	0.018172	0.906568
92	C	0.519212	0.039051	0.064997
93	C	0.536697	0.074097	0.016876
94	C	0.539543	0.079796	0.821955
95	C	0.555812	0.112401	0.726802
96	C	0.571482	0.143808	0.813436
97	C	0.585081	0.171063	0.679858
98	C	0.579709	0.160295	0.491978
99	C	0.589894	0.180708	0.319773
100	C	0.58447	0.169837	0.131377
101	C	0.598064	0.197081	0
102	C	0.613555	0.228125	0.086358
103	S	0.611642	0.224291	0.329429
104	S	0.558084	0.116952	0.482932
105	S	0.520691	0.042003	0.701738
106	S	0.478601	0.957648	0.701738
107	S	0.441207	0.882699	0.482932
108	C	0.414821	0.829814	0.131377
109	H	0.373429	0.746853	0.020071
110	H	0.401084	0.802274	0.722501
111	H	0.425936	0.852085	0.966647
112	H	0.452648	0.905626	0.122854
113	H	0.484618	0.969706	0.210853
114	H	0.514667	0.029945	0.210853
115	H	0.546638	0.094025	0.122854
116	H	0.573357	0.147566	0.966647
117	H	0.59821	0.197377	0.7225
118	H	0.571315	0.143474	0.08972
119	H	0.625866	0.252799	0.020071
120	H	0.427974	0.856177	0.08972
121	C	0.19838	0.598279	0
122	C	0.229628	0.613801	0.086358
123	S	0.225768	0.611884	0.329429
124	C	0.181899	0.590093	0.319773
125	C	0.161352	0.579886	0.491978
126	C	0.17219	0.585272	0.679858
127	C	0.144756	0.571644	0.813436
128	C	0.113142	0.555939	0.726802
129	C	0.080322	0.539636	0.821956
130	C	0.074586	0.536787	0.016876
131	C	0.039309	0.519263	0.064997
132	C	0.018293	0.508823	0.906568
133	C	0.981358	0.490475	0.906568
134	C	0.960342	0.480033	0.064997
135	C	0.925066	0.46251	0.016876
136	C	0.919329	0.459663	0.821955
137	C	0.88651	0.443361	0.726802
138	C	0.854896	0.427657	0.813436
139	C	0.827461	0.41403	0.679858
140	C	0.8383	0.419415	0.491978
141	C	0.817753	0.409209	0.319773
142	C	0.828695	0.414644	0.131377
143	C	0.801272	0.401023	0
144	C	0.770023	0.385502	0.086358
145	S	0.773883	0.38742	0.329429
146	S	0.881928	0.441086	0.482932
147	S	0.95737	0.478562	0.701738
148	S	0.042281	0.520738	0.701738
149	S	0.117724	0.558214	0.482932
150	C	0.170957	0.584657	0.131377
151	H	0.254464	0.626138	0.020071
152	H	0.198677	0.59843	0.722501
153	H	0.148539	0.573524	0.966647
154	H	0.094645	0.546752	0.122854
155	H	0.030144	0.51471	0.210853
156	H	0.969508	0.484584	0.210853
157	H	0.905006	0.452543	0.122854
158	H	0.851113	0.425778	0.966647
159	H	0.800974	0.400873	0.7225
160	H	0.855232	0.427824	0.08972
161	H	0.745188	0.373167	0.020071
162	H	0.14442	0.571475	0.08972
