data_C114H54N6O6S24_2023-05-13_08:12:28
#******************************************
#
# CIF file created by Zeo++
# Zeo++ is an open source package to
# analyze microporous materials
#
#*******************************************

_cell_length_a		61.5102   
_cell_length_b		61.8086   
_cell_length_c		7   
_cell_angle_alpha		90   
_cell_angle_beta		90   
_cell_angle_gamma		119.789   

_symmetry_space_group_name_H-M		'P1'
_symmetry_Int_Tables_number		1
_symmetry_cell_setting		Monoclinic

loop_
_symmetry_equiv_pos_as_xyz
'+x,+y,+z'

loop_
_atom_site_label
_atom_site_type_symbol
_atom_site_fract_x
_atom_site_fract_y
_atom_site_fract_z
1	C	0.358536	0.671942	0.999995
2	O	0.380631	0.675821	0.999991
3	C	0.338545	0.646019	0.999998
4	C	0.342409	0.626912	0
5	N	0.367141	0.63138	0
6	C	0.312993	0.641418	3e-06
7	O	0.295029	0.619076	5e-06
8	C	0.306871	0.661354	6e-06
9	C	0.283357	0.656543	5e-06
10	N	0.263905	0.631123	0
11	C	0.327822	0.68707	4e-06
12	O	0.322958	0.704309	7e-06
13	C	0.353787	0.692826	0.999999
14	C	0.372257	0.716286	0.999998
15	N	0.368565	0.73711	0
16	H	0.327106	0.608311	1e-06
17	H	0.278409	0.670823	8e-06
18	H	0.390922	0.719636	0.999997
19	C	0.641464	0.328058	0.999995
20	O	0.619369	0.324179	0.999991
21	C	0.661455	0.353981	0.999998
22	C	0.657591	0.373088	0
23	N	0.632859	0.36862	0
24	C	0.687007	0.358582	3e-06
25	O	0.704971	0.380924	5e-06
26	C	0.693129	0.338646	6e-06
27	C	0.716643	0.343457	5e-06
28	N	0.736095	0.368877	0
29	C	0.672178	0.31293	4e-06
30	O	0.677042	0.295691	7e-06
31	C	0.646213	0.307174	0.999999
32	C	0.627743	0.283714	0.999998
33	N	0.631435	0.26289	0
34	H	0.672894	0.391689	1e-06
35	H	0.721591	0.329177	8e-06
36	H	0.609078	0.280364	0.999997
37	C	0.382223	0.616467	0
38	C	0.392774	0.603465	0.923206
39	C	0.401437	0.593499	0.069668
40	C	0.397187	0.599262	0.252576
41	C	0.403456	0.592317	0.433673
42	C	0.400086	0.598848	0.615699
43	C	0.40848	0.588593	0.76165
44	C	0.418246	0.574368	0.689895
45	C	0.428146	0.561323	0.799866
46	C	0.424011	0.555215	0.991533
47	C	0.4366	0.542506	0.05779
48	C	0.450217	0.539017	0.916069
49	C	0.465157	0.526965	0.936882
50	C	0.474144	0.5228	0.10576
51	C	0.488103	0.510256	0.078143
52	C	0.48961	0.5049	0.888411
53	C	0.502155	0.492396	0.807768
54	C	0.506039	0.489466	0.617243
55	C	0.519151	0.476064	0.589701
56	C	0.525157	0.468826	0.759379
57	C	0.538361	0.455066	0.785995
58	C	0.542107	0.445565	0.953831
59	C	0.556075	0.433021	0.926746
60	C	0.562825	0.432987	0.738423
61	C	0.577159	0.422022	0.664028
62	C	0.591983	0.415299	0.768212
63	C	0.603513	0.404783	0.652794
64	C	0.597396	0.4036	0.461573
65	C	0.605817	0.393815	0.30811
66	C	0.615243	0.377654	0.326288
67	C	0.622143	0.371644	0.147571
68	C	0.617777	0.383533	0
69	S	0.605706	0.401507	0.071678
70	S	0.577508	0.4152	0.426823
71	S	0.552054	0.44843	0.598182
72	S	0.514617	0.47861	0.949617
73	S	0.473852	0.515336	0.747545
74	S	0.447495	0.551522	0.704746
75	S	0.416832	0.573695	0.445132
76	S	0.382548	0.616878	0.241381
77	H	0.394343	0.601074	0.771512
78	H	0.410425	0.582584	0.039986
79	H	0.391978	0.610548	0.645608
80	H	0.407423	0.591813	0.912581
81	H	0.412312	0.559435	0.081962
82	H	0.435412	0.536114	0.20349
83	H	0.471109	0.52857	0.244605
84	H	0.496642	0.505552	0.194328
85	H	0.499888	0.496586	0.500149
86	H	0.523801	0.47203	0.449779
87	H	0.535164	0.447325	0.091848
88	H	0.560707	0.424323	0.041968
89	H	0.594745	0.417888	0.921125
90	H	0.615904	0.398594	0.709276
91	H	0.617034	0.37021	0.461757
92	H	0.6298	0.35932	0.130499
93	C	0.383455	0.766938	0
94	C	0.396448	0.790363	0.923206
95	C	0.406404	0.808889	0.069668
96	C	0.400643	0.798931	0.252576
97	C	0.40758	0.812071	0.433673
98	C	0.401046	0.802221	0.615699
99	C	0.411294	0.820769	0.76165
100	C	0.425516	0.844631	0.689895
101	C	0.438555	0.867453	0.799866
102	C	0.444697	0.869429	0.991533
103	C	0.457387	0.894586	0.05779
104	C	0.460828	0.911583	0.916069
105	C	0.472849	0.93842	0.936882
106	C	0.476987	0.951492	0.10576
107	C	0.489506	0.977844	0.078143
108	C	0.494871	0.984674	0.888411
109	C	0.507355	0.009583	0.807768
110	C	0.510277	0.016358	0.617243
111	C	0.52366	0.042724	0.589701
112	C	0.530892	0.055896	0.759379
113	C	0.544634	0.08271	0.785995
114	C	0.554145	0.095891	0.953831
115	C	0.566664	0.122253	0.926746
116	C	0.566669	0.128989	0.738423
117	C	0.577603	0.154143	0.664028
118	C	0.584281	0.175558	0.768212
119	C	0.594778	0.19748	0.652794
120	C	0.59599	0.192584	0.461573
121	C	0.605766	0.21069	0.30811
122	C	0.62193	0.236142	0.326288
123	C	0.627928	0.24898	0.147571
124	C	0.616024	0.232804	0
125	S	0.598052	0.20292	0.071678
126	S	0.584443	0.161282	0.426823
127	S	0.55123	0.102916	0.598182
128	S	0.521126	0.035687	0.949617
129	S	0.484473	0.958633	0.747545
130	S	0.4483	0.896427	0.704746
131	S	0.426197	0.843897	0.445132
132	S	0.383041	0.766851	0.241381
133	H	0.398838	0.794301	0.771512
134	H	0.41731	0.828684	0.039986
135	H	0.389348	0.782519	0.645608
136	H	0.408069	0.816513	0.912581
137	H	0.440515	0.853608	0.081962
138	H	0.463801	0.89977	0.20349
139	H	0.471214	0.942731	0.244605
140	H	0.494187	0.991008	0.194328
141	H	0.503163	0.00316	0.500149
142	H	0.527685	0.051358	0.449779
143	H	0.55241	0.087243	0.091848
144	H	0.575366	0.135513	0.041968
145	H	0.581674	0.175724	0.921125
146	H	0.600931	0.215948	0.709276
147	H	0.629387	0.245333	0.461757
148	H	0.640253	0.268855	0.130499
149	C	0.233933	0.616209	0
150	C	0.210389	0.605786	0.923206
151	C	0.19177	0.597225	0.069668
152	C	0.20178	0.601421	0.252576
153	C	0.188575	0.595225	0.433673
154	C	0.198479	0.598545	0.615699
155	C	0.179837	0.590252	0.76165
156	C	0.15585	0.580614	0.689895
157	C	0.132911	0.570838	0.799866
158	C	0.130903	0.57497	0.991533
159	C	0.105623	0.562522	0.05779
160	C	0.088566	0.549014	0.916069
161	C	0.061605	0.534229	0.936882
162	C	0.04848	0.525322	0.10576
163	C	0.022002	0.511514	0.078143
164	C	0.015131	0.51004	0.888411
165	C	0.990101	0.497635	0.807768
166	C	0.983295	0.49379	0.617243
167	C	0.956801	0.480826	0.589701
168	C	0.943562	0.474892	0.759379
169	C	0.916616	0.461838	0.785995
170	C	0.903359	0.458158	0.953831
171	C	0.876872	0.44434	0.926746
172	C	0.870118	0.437637	0.738423
173	C	0.844849	0.423449	0.664028
174	C	0.823347	0.408756	0.768212
175	C	0.801321	0.397351	0.652794
176	C	0.806225	0.40343	0.461573
177	C	0.788028	0.395109	0.30811
178	C	0.762438	0.385817	0.326288
179	C	0.74954	0.37899	0.147571
180	C	0.76581	0.383276	0
181	S	0.795852	0.395187	0.071678
182	S	0.837661	0.423131	0.426823
183	S	0.896328	0.448268	0.598182
184	S	0.963868	0.485317	0.949617
185	S	0.041287	0.525644	0.747545
186	S	0.103816	0.551665	0.704746
187	S	0.156583	0.582022	0.445132
188	S	0.234022	0.615884	0.241381
189	H	0.20643	0.604238	0.771512
190	H	0.171875	0.588346	0.039986
191	H	0.218285	0.606546	0.645608
192	H	0.184119	0.591288	0.912581
193	H	0.146785	0.586571	0.081962
194	H	0.100398	0.56373	0.20349
195	H	0.057288	0.528312	0.244605
196	H	0.008783	0.503054	0.194328
197	H	0.99656	0.499867	0.500149
198	H	0.948125	0.476225	0.449779
199	H	0.912038	0.465046	0.091848
200	H	0.863539	0.439777	0.041968
201	H	0.823192	0.406002	0.921125
202	H	0.782777	0.385072	0.709276
203	H	0.753191	0.38407	0.461757
204	H	0.729558	0.371438	0.130499
