data_C54H18N6O6S6_2023-05-12_08:57:57
#******************************************
#
# CIF file created by Zeo++
# Zeo++ is an open source package to
# analyze microporous materials
#
#*******************************************

_cell_length_a		37.6964   
_cell_length_b		37.995   
_cell_length_c		7   
_cell_angle_alpha		90   
_cell_angle_beta		90   
_cell_angle_gamma		119.657   

_symmetry_space_group_name_H-M		'P1'
_symmetry_Int_Tables_number		1
_symmetry_cell_setting		Monoclinic

loop_
_symmetry_equiv_pos_as_xyz
'+x,+y,+z'

loop_
_atom_site_label
_atom_site_type_symbol
_atom_site_fract_x
_atom_site_fract_y
_atom_site_fract_z
1	C	0.374433	0.675237	0.999995
2	O	0.410469	0.681539	0.999991
3	C	0.341928	0.633123	0.999998
4	C	0.348314	0.602081	0
5	N	0.388652	0.60934	0
6	C	0.300254	0.625648	3e-06
7	O	0.271037	0.58935	5e-06
8	C	0.290177	0.658036	6e-06
9	C	0.251829	0.65022	5e-06
10	N	0.2202	0.608921	0
11	C	0.324251	0.699814	4e-06
12	O	0.316239	0.727822	7e-06
13	C	0.366593	0.709166	0.999999
14	C	0.396629	0.747279	0.999998
15	N	0.390514	0.781111	0
16	H	0.323427	0.571862	1e-06
17	H	0.243692	0.673419	8e-06
18	H	0.427071	0.752721	0.999997
19	C	0.625567	0.324763	0.999995
20	O	0.589531	0.318461	0.999991
21	C	0.658072	0.366877	0.999998
22	C	0.651686	0.397919	0
23	N	0.611348	0.39066	0
24	C	0.699746	0.374352	3e-06
25	O	0.728963	0.41065	5e-06
26	C	0.709823	0.341964	6e-06
27	C	0.748171	0.34978	5e-06
28	N	0.7798	0.391079	0
29	C	0.675749	0.300186	4e-06
30	O	0.683761	0.272178	7e-06
31	C	0.633407	0.290834	0.999999
32	C	0.603371	0.252721	0.999998
33	N	0.609486	0.218889	0
34	H	0.676573	0.428138	1e-06
35	H	0.756308	0.326581	8e-06
36	H	0.572929	0.247279	0.999997
37	C	0.413326	0.585111	0
38	C	0.412685	0.585737	0.804075
39	S	0.437028	0.56183	0.709004
40	C	0.448167	0.550896	0.930745
41	C	0.469929	0.529528	0.959763
42	C	0.488251	0.511535	0.984281
43	C	0.511747	0.488463	0.015719
44	C	0.53007	0.470471	0.040238
45	C	0.551832	0.449102	0.069256
46	C	0.566356	0.43484	0.925282
47	C	0.586674	0.414889	0
48	C	0.587314	0.414261	0.195925
49	S	0.562969	0.438166	0.290996
50	C	0.433645	0.56516	0.074719
51	H	0.39932	0.598859	0.711704
52	H	0.562481	0.438645	0.774728
53	H	0.600678	0.401138	0.288296
54	H	0.437521	0.561357	0.225272
55	C	0.414681	0.82957	0
56	C	0.414056	0.828313	0.804075
57	S	0.437902	0.876124	0.709004
58	C	0.448808	0.897996	0.930745
59	C	0.470123	0.940734	0.959763
60	C	0.488069	0.976719	0.984281
61	C	0.511082	0.022863	0.015719
62	C	0.529028	0.058848	0.040238
63	C	0.550342	0.101586	0.069256
64	C	0.564568	0.13011	0.925282
65	C	0.584468	0.170013	0
66	C	0.585095	0.17127	0.195925
67	S	0.56125	0.123458	0.290996
68	C	0.434581	0.869472	0.074719
69	H	0.400968	0.802067	0.711704
70	H	0.560773	0.122501	0.774728
71	H	0.598184	0.197515	0.288296
72	H	0.438375	0.877081	0.225272
73	C	0.171358	0.584692	0
74	C	0.172625	0.585322	0.804075
75	S	0.124436	0.561418	0.709004
76	C	0.10239	0.55048	0.930745
77	C	0.059315	0.529111	0.959763
78	C	0.023046	0.511118	0.984281
79	C	0.976537	0.488046	0.015719
80	C	0.940268	0.470053	0.040238
81	C	0.897192	0.448684	0.069256
82	C	0.868443	0.434422	0.925282
83	C	0.828225	0.41447	0
84	C	0.826958	0.413842	0.195925
85	S	0.875147	0.437748	0.290996
86	C	0.13114	0.56474	0.074719
87	H	0.199078	0.598446	0.711704
88	H	0.876112	0.438227	0.774728
89	H	0.800505	0.400719	0.288296
90	H	0.123471	0.560934	0.225272
