data_C78H36N6O6S15_2023-05-15_10:14:44
#******************************************
#
# CIF file created by Zeo++
# Zeo++ is an open source package to
# analyze microporous materials
#
#*******************************************

_cell_length_a		41.903   
_cell_length_b		42.2015   
_cell_length_c		7   
_cell_angle_alpha		90   
_cell_angle_beta		90   
_cell_angle_gamma		119.691   

_symmetry_space_group_name_H-M		'P1'
_symmetry_Int_Tables_number		1
_symmetry_cell_setting		Monoclinic

loop_
_symmetry_equiv_pos_as_xyz
'+x,+y,+z'

loop_
_atom_site_label
_atom_site_type_symbol
_atom_site_fract_x
_atom_site_fract_y
_atom_site_fract_z
1	C	0.370313	0.674385	0.999995
2	O	0.402735	0.680061	0.999991
3	C	0.341044	0.636456	0.999998
4	C	0.34677	0.608499	0
5	N	0.383063	0.615037	0
6	C	0.303549	0.629724	3e-06
7	O	0.277243	0.597033	5e-06
8	C	0.294504	0.658894	6e-06
9	C	0.260001	0.651854	5e-06
10	N	0.231521	0.61466	0
11	C	0.325184	0.69652	4e-06
12	O	0.317994	0.721745	7e-06
13	C	0.363281	0.704942	0.999999
14	C	0.390325	0.739268	0.999998
15	N	0.384845	0.769738	0
16	H	0.324362	0.581283	1e-06
17	H	0.252696	0.672748	8e-06
18	H	0.417715	0.74417	0.999997
19	C	0.629687	0.325615	0.999995
20	O	0.597265	0.319939	0.999991
21	C	0.658956	0.363544	0.999998
22	C	0.65323	0.391501	0
23	N	0.616937	0.384963	0
24	C	0.696451	0.370276	3e-06
25	O	0.722757	0.402967	5e-06
26	C	0.705496	0.341106	6e-06
27	C	0.739999	0.348146	5e-06
28	N	0.768479	0.38534	0
29	C	0.674816	0.30348	4e-06
30	O	0.682006	0.278255	7e-06
31	C	0.636719	0.295058	0.999999
32	C	0.609675	0.260732	0.999998
33	N	0.615155	0.230262	0
34	H	0.675638	0.418717	1e-06
35	H	0.747304	0.327252	8e-06
36	H	0.582285	0.25583	0.999997
37	C	0.594755	0.406785	0
38	C	0.606933	0.394803	0.149977
39	C	0.597303	0.404275	0.32829
40	C	0.578156	0.423114	0.307942
41	C	0.564529	0.436519	0.460613
42	C	0.568094	0.433012	0.655077
43	C	0.55165	0.449189	0.768771
44	C	0.535857	0.464725	0.658494
45	C	0.515455	0.484797	0.739332
46	C	0.511368	0.488817	0.931275
47	S	0.488041	0.511766	0.97289
48	C	0.482833	0.51689	0.732965
49	C	0.46382	0.535595	0.665208
50	C	0.447697	0.551458	0.772008
51	C	0.431345	0.567544	0.657132
52	C	0.435078	0.563869	0.463353
53	C	0.421583	0.577145	0.309437
54	C	0.402418	0.596	0.32804
55	C	0.39294	0.605323	0.148868
56	C	0.405245	0.593215	0
57	S	0.427627	0.571196	0.071029
58	S	0.458593	0.540734	0.425952
59	C	0.498993	0.500992	0.625755
60	S	0.541005	0.459662	0.420884
61	S	0.572314	0.428862	0.069011
62	H	0.621875	0.380102	0.134967
63	H	0.604314	0.397377	0.465088
64	H	0.581902	0.419428	0.715777
65	H	0.551735	0.449105	0.923375
66	H	0.520791	0.479547	0.051225
67	H	0.447387	0.551765	0.92674
68	H	0.417498	0.581169	0.716815
69	H	0.395294	0.603011	0.464215
70	H	0.378012	0.62001	0.132525
71	H	0.499066	0.500921	0.470999
72	C	0.592618	0.186242	0
73	C	0.604573	0.210204	0.149977
74	C	0.595122	0.191258	0.32829
75	C	0.576327	0.153584	0.307942
76	C	0.562953	0.126774	0.460613
77	C	0.566452	0.133787	0.655077
78	C	0.550312	0.101434	0.768771
79	C	0.534811	0.070361	0.658494
80	C	0.514785	0.030218	0.739332
81	C	0.510775	0.022178	0.931275
82	S	0.487879	0.976282	0.97289
83	C	0.482766	0.966033	0.732965
84	C	0.464104	0.928625	0.665208
85	C	0.448277	0.8969	0.772008
86	C	0.432228	0.864728	0.657132
87	C	0.435895	0.872076	0.463353
88	C	0.42265	0.845524	0.309437
89	C	0.403838	0.807816	0.32804
90	C	0.394536	0.789169	0.148868
91	C	0.406617	0.813382	0
92	S	0.428585	0.857418	0.071029
93	S	0.458977	0.918344	0.425952
94	C	0.498628	0.997829	0.625755
95	S	0.539863	0.080489	0.420884
96	S	0.570592	0.142089	0.069011
97	H	0.61924	0.239604	0.134967
98	H	0.602005	0.205053	0.465088
99	H	0.580004	0.160954	0.715777
100	H	0.550395	0.101601	0.923375
101	H	0.520024	0.040718	0.051225
102	H	0.447971	0.896289	0.92674
103	H	0.418635	0.837481	0.716815
104	H	0.396843	0.793796	0.464215
105	H	0.379883	0.759796	0.132525
106	H	0.498699	0.997972	0.470999
107	C	0.812056	0.406408	0
108	C	0.787923	0.394428	0.149977
109	C	0.807004	0.403901	0.32829
110	C	0.844946	0.422737	0.307942
111	C	0.871947	0.436142	0.460613
112	C	0.864884	0.432636	0.655077
113	C	0.897467	0.448812	0.768771
114	C	0.928761	0.464348	0.658494
115	C	0.96919	0.484419	0.739332
116	C	0.977287	0.488439	0.931275
117	S	0.023509	0.511387	0.97289
118	C	0.033831	0.516511	0.732965
119	C	0.071505	0.535215	0.665208
120	C	0.103455	0.551076	0.772008
121	C	0.135856	0.567162	0.657132
122	C	0.128456	0.563489	0.463353
123	C	0.155197	0.576766	0.309437
124	C	0.193173	0.595619	0.32804
125	C	0.211953	0.604943	0.148868
126	C	0.187568	0.592838	0
127	S	0.143218	0.57082	0.071029
128	S	0.081859	0.540357	0.425952
129	C	0.001809	0.500613	0.625755
130	S	0.918562	0.459284	0.420884
131	S	0.856523	0.428483	0.069011
132	H	0.758315	0.379729	0.134967
133	H	0.793111	0.397004	0.465088
134	H	0.837524	0.419052	0.715777
135	H	0.897299	0.448729	0.923375
136	H	0.958615	0.47917	0.051225
137	H	0.104071	0.551381	0.92674
138	H	0.163297	0.580785	0.716815
139	H	0.207292	0.602627	0.464215
140	H	0.241534	0.619629	0.132525
141	H	0.001665	0.500542	0.470999
