data_C96H48N6O6S18_2023-05-15_14:45:55
#******************************************
#
# CIF file created by Zeo++
# Zeo++ is an open source package to
# analyze microporous materials
#
#*******************************************

_cell_length_a		48.9452   
_cell_length_b		49.2436   
_cell_length_c		7   
_cell_angle_alpha		90   
_cell_angle_beta		90   
_cell_angle_gamma		119.735   

_symmetry_space_group_name_H-M		'P1'
_symmetry_Int_Tables_number		1
_symmetry_cell_setting		Monoclinic

loop_
_symmetry_equiv_pos_as_xyz
'+x,+y,+z'

loop_
_atom_site_label
_atom_site_type_symbol
_atom_site_fract_x
_atom_site_fract_y
_atom_site_fract_z
1	C	0.364998	0.673284	0.999995
2	O	0.39276	0.678151	0.999991
3	C	0.339912	0.640765	0.999998
4	C	0.344793	0.616795	0
5	N	0.375869	0.622401	0
6	C	0.307806	0.634993	3e-06
7	O	0.28526	0.606965	5e-06
8	C	0.300085	0.660002	6e-06
9	C	0.270541	0.653967	5e-06
10	N	0.24613	0.622077	0
11	C	0.326379	0.692262	4e-06
12	O	0.320243	0.713889	7e-06
13	C	0.359001	0.699483	0.999999
14	C	0.382181	0.728913	0.999998
15	N	0.377513	0.755037	0
16	H	0.325587	0.593461	1e-06
17	H	0.264303	0.67188	8e-06
18	H	0.405633	0.733115	0.999997
19	C	0.635002	0.326716	0.999995
20	O	0.60724	0.321849	0.999991
21	C	0.660088	0.359235	0.999998
22	C	0.655207	0.383205	0
23	N	0.624131	0.377599	0
24	C	0.692194	0.365007	3e-06
25	O	0.71474	0.393035	5e-06
26	C	0.699915	0.339998	6e-06
27	C	0.729459	0.346033	5e-06
28	N	0.75387	0.377923	0
29	C	0.673621	0.307738	4e-06
30	O	0.679757	0.286111	7e-06
31	C	0.640999	0.300517	0.999999
32	C	0.617819	0.271087	0.999998
33	N	0.622487	0.244963	0
34	H	0.674413	0.406539	1e-06
35	H	0.735697	0.32812	8e-06
36	H	0.594367	0.266885	0.999997
37	C	0.394842	0.603691	0
38	C	0.407672	0.59105	0.120636
39	C	0.402853	0.59583	0.31644
40	C	0.41447	0.584391	0.492995
41	C	0.409781	0.589041	0.681217
42	C	0.422997	0.576019	0.80892
43	C	0.437485	0.561713	0.7158
44	C	0.453066	0.546352	0.804208
45	C	0.456326	0.543147	0.997801
46	C	0.472902	0.526801	0.039078
47	C	0.482266	0.517557	0.876896
48	C	0.499095	0.500956	0.852573
49	C	0.509178	0.491004	0.001173
50	C	0.526096	0.474313	0.984165
51	C	0.536869	0.463663	0.133304
52	C	0.55298	0.447773	0.071547
53	C	0.554506	0.446293	0.874901
54	C	0.569208	0.431799	0.76684
55	C	0.584463	0.416777	0.840645
56	C	0.596455	0.404948	0.696566
57	C	0.590089	0.411203	0.515525
58	C	0.600049	0.401371	0.324956
59	C	0.616426	0.385236	0.321128
60	S	0.623724	0.378024	0.092387
61	C	0.605158	0.396309	0
62	C	0.593485	0.407822	0.136548
63	S	0.569878	0.431116	0.521282
64	S	0.536123	0.464449	0.770261
65	S	0.470422	0.529229	0.676272
66	S	0.4346	0.564528	0.472549
67	C	0.386549	0.611917	0.333836
68	S	0.377231	0.62108	0.115884
69	H	0.419846	0.579034	0.07162
70	H	0.397563	0.601102	0.728303
71	H	0.421734	0.577286	0.962846
72	H	0.447299	0.552056	0.107734
73	H	0.477562	0.522213	0.183214
74	H	0.503514	0.4966	0.706656
75	H	0.504611	0.495504	0.146284
76	H	0.533351	0.467114	0.282249
77	H	0.562916	0.437953	0.169333
78	H	0.587112	0.414183	0.99203
79	H	0.609036	0.392556	0.727542
80	H	0.624645	0.377148	0.439611
81	H	0.580932	0.420187	0.103585
82	H	0.379453	0.618933	0.462268
83	C	0.396185	0.792456	0
84	C	0.408802	0.817749	0.120636
85	C	0.404031	0.808216	0.31644
86	C	0.415447	0.83111	0.492995
87	C	0.410806	0.821837	0.681217
88	C	0.423802	0.847891	0.80892
89	C	0.43808	0.876483	0.7158
90	C	0.453412	0.907208	0.804208
91	C	0.45661	0.913627	0.997801
92	C	0.472924	0.946318	0.039078
93	C	0.48215	0.964796	0.876896
94	C	0.498718	0.997991	0.852573
95	C	0.508651	0.017885	0.001173
96	C	0.525309	0.051258	0.984165
97	C	0.535938	0.072531	0.133304
98	C	0.551797	0.104308	0.071547
99	C	0.553274	0.107293	0.874901
100	C	0.567739	0.136282	0.76684
101	C	0.582732	0.166347	0.840645
102	C	0.594538	0.190001	0.696566
103	C	0.588295	0.177469	0.515525
104	C	0.598107	0.197122	0.324956
105	C	0.614211	0.229405	0.321128
106	S	0.621409	0.243814	0.092387
107	C	0.60316	0.207221	0
108	C	0.59167	0.184198	0.136548
109	S	0.568421	0.137626	0.521282
110	S	0.535153	0.071009	0.770261
111	S	0.4705	0.941444	0.676272
112	S	0.435271	0.870822	0.472549
113	C	0.387976	0.776053	0.333836
114	S	0.37883	0.757702	0.115884
115	H	0.420795	0.841768	0.07162
116	H	0.398769	0.797729	0.728303
117	H	0.422538	0.845379	0.962846
118	H	0.447719	0.895817	0.107734
119	H	0.477503	0.9555	0.183214
120	H	0.503065	0.006704	0.706656
121	H	0.50416	0.008881	0.146284
122	H	0.532494	0.06561	0.282249
123	H	0.561597	0.123924	0.169333
124	H	0.585321	0.171553	0.99203
125	H	0.606905	0.214799	0.727542
126	H	0.622283	0.245598	0.439611
127	H	0.579329	0.159455	0.103585
128	H	0.380973	0.76204	0.462268
129	C	0.208484	0.603368	0
130	C	0.183037	0.590717	0.120636
131	C	0.192628	0.595469	0.31644
132	C	0.169595	0.584014	0.492995
133	C	0.178924	0.588637	0.681217
134	C	0.152712	0.575605	0.80892
135	C	0.123946	0.561319	0.7158
136	C	0.093034	0.545956	0.804208
137	C	0.086575	0.542741	0.997801
138	C	0.053685	0.526396	0.039078
139	C	0.035095	0.517163	0.876896
140	C	0.001698	0.500568	0.852573
141	C	0.981683	0.490626	0.001173
142	C	0.948106	0.473944	0.984165
143	C	0.926704	0.463321	0.133304
144	C	0.894734	0.447435	0.071547
145	C	0.891731	0.44593	0.874901
146	C	0.862564	0.431433	0.76684
147	C	0.832317	0.416391	0.840645
148	C	0.808519	0.404566	0.696566
149	C	0.821127	0.410844	0.515525
150	C	0.801355	0.401022	0.324956
151	C	0.768875	0.384874	0.321128
152	S	0.754379	0.377678	0.092387
153	C	0.791194	0.395985	0
154	C	0.814357	0.407495	0.136548
155	S	0.861212	0.430773	0.521282
156	S	0.928235	0.464057	0.770261
157	S	0.058589	0.528842	0.676272
158	S	0.129641	0.564165	0.472549
159	C	0.224987	0.611546	0.333836
160	S	0.24345	0.620733	0.115884
161	H	0.158871	0.578713	0.07162
162	H	0.203179	0.600685	0.728303
163	H	0.155239	0.576851	0.962846
164	H	0.104494	0.551643	0.107734
165	H	0.044447	0.521802	0.183214
166	H	0.992932	0.496211	0.706656
167	H	0.990741	0.49513	0.146284
168	H	0.933667	0.466791	0.282249
169	H	0.874998	0.437638	0.169333
170	H	0.827079	0.413779	0.99203
171	H	0.78357	0.392161	0.727542
172	H	0.752584	0.376769	0.439611
173	H	0.83925	0.419873	0.103585
174	H	0.239085	0.618542	0.462268
