data_C102H48N12O6S18_2023-05-12_06:27:55
#******************************************
#
# CIF file created by Zeo++
# Zeo++ is an open source package to
# analyze microporous materials
#
#*******************************************

_cell_length_a		53.8842   
_cell_length_b		54.1826   
_cell_length_c		7   
_cell_angle_alpha		90   
_cell_angle_beta		90   
_cell_angle_gamma		119.759   

_symmetry_space_group_name_H-M		'P1'
_symmetry_Int_Tables_number		1
_symmetry_cell_setting		Monoclinic

loop_
_symmetry_equiv_pos_as_xyz
'+x,+y,+z'

loop_
_atom_site_label
_atom_site_type_symbol
_atom_site_fract_x
_atom_site_fract_y
_atom_site_fract_z
1	C	0.362099	0.672683	0.999995
2	O	0.387318	0.677106	0.999991
3	C	0.339297	0.64312	0.999998
4	C	0.34372	0.62133	0
5	N	0.37195	0.626426	0
6	C	0.310132	0.637873	3e-06
7	O	0.28964	0.612394	5e-06
8	C	0.30313	0.660608	6e-06
9	C	0.276291	0.655122	5e-06
10	N	0.254103	0.626132	0
11	C	0.327028	0.689934	4e-06
12	O	0.321464	0.709595	7e-06
13	C	0.356663	0.696499	0.999999
14	C	0.377731	0.723253	0.999998
15	N	0.373503	0.747001	0
16	H	0.326265	0.600118	1e-06
17	H	0.270632	0.671406	8e-06
18	H	0.399036	0.727073	0.999997
19	C	0.637901	0.327317	0.999995
20	O	0.612682	0.322894	0.999991
21	C	0.660703	0.35688	0.999998
22	C	0.65628	0.37867	0
23	N	0.62805	0.373574	0
24	C	0.689868	0.362127	3e-06
25	O	0.71036	0.387606	5e-06
26	C	0.69687	0.339392	6e-06
27	C	0.723709	0.344878	5e-06
28	N	0.745897	0.373868	0
29	C	0.672972	0.310066	4e-06
30	O	0.678536	0.290405	7e-06
31	C	0.643337	0.303501	0.999999
32	C	0.622269	0.276747	0.999998
33	N	0.626497	0.252999	0
34	H	0.673735	0.399882	1e-06
35	H	0.729368	0.328594	8e-06
36	H	0.600964	0.272927	0.999997
37	C	0.389177	0.609418	0
38	C	0.378608	0.619863	0.86327
39	S	0.385864	0.612702	0.638537
40	C	0.403082	0.595689	0.725928
41	C	0.416993	0.581952	0.596728
42	C	0.416544	0.582401	0.400302
43	S	0.433338	0.565815	0.301346
44	C	0.441675	0.55757	0.520726
45	C	0.457206	0.542227	0.544193
46	C	0.464713	0.534829	0.71522
47	C	0.480123	0.519599	0.694203
48	C	0.490601	0.509262	0.85041
49	C	0.505442	0.494604	0.824219
50	N	0.515047	0.485129	0.970941
51	C	0.509389	0.490727	0.149595
52	C	0.519867	0.48039	0.305802
53	C	0.516239	0.483986	0.496938
54	S	0.530933	0.469485	0.643942
55	C	0.542786	0.457764	0.455812
56	C	0.55832	0.442424	0.479278
57	C	0.568525	0.432349	0.334616
58	C	0.583006	0.418047	0.403274
59	C	0.596918	0.40431	0.274073
60	C	0.596701	0.404528	0.076904
61	C	0.610823	0.390582	0
62	C	0.621396	0.38014	0.136729
63	S	0.614141	0.387302	0.361463
64	C	0.583457	0.4176	0.5997
65	S	0.566662	0.434184	0.698657
66	C	0.535281	0.465165	0.284784
67	C	0.494548	0.505385	0.175786
68	N	0.484943	0.514861	0.029064
69	C	0.483745	0.515998	0.503068
70	S	0.469052	0.5305	0.356063
71	C	0.431471	0.567647	0.665387
72	C	0.403297	0.59547	0.923097
73	H	0.367064	0.631266	0.88285
74	H	0.407225	0.591611	0.307847
75	H	0.459518	0.539979	0.853803
76	H	0.510362	0.489738	0.683919
77	H	0.505715	0.494385	0.562635
78	H	0.565689	0.435152	0.184706
79	H	0.586967	0.414141	0.991994
80	H	0.632941	0.368739	0.117148
81	H	0.592779	0.408393	0.692155
82	H	0.54048	0.460019	0.146202
83	H	0.489628	0.510252	0.316086
84	H	0.494264	0.505594	0.437371
85	H	0.434305	0.564841	0.815297
86	H	0.413028	0.585855	0.008008
87	C	0.39048	0.781017	0
88	C	0.380054	0.760137	0.86327
89	S	0.387202	0.774462	0.638537
90	C	0.404184	0.808475	0.725928
91	C	0.417897	0.835947	0.596728
92	C	0.417448	0.835055	0.400302
93	S	0.434005	0.868221	0.301346
94	C	0.442235	0.884698	0.520726
95	C	0.457551	0.915374	0.544193
96	C	0.464936	0.930185	0.71522
97	C	0.480139	0.960629	0.694203
98	C	0.490457	0.981311	0.85041
99	C	0.505089	0.010622	0.824219
100	N	0.514547	0.029581	0.970941
101	C	0.508959	0.018396	0.149595
102	C	0.519278	0.039078	0.305802
103	C	0.515688	0.031901	0.496938
104	S	0.530163	0.060909	0.643942
105	C	0.541863	0.084332	0.455812
106	C	0.557176	0.115009	0.479278
107	C	0.567233	0.135161	0.334616
108	C	0.581509	0.16376	0.403274
109	C	0.595222	0.191232	0.274073
110	C	0.595005	0.1908	0.076904
111	C	0.608925	0.218689	0
112	C	0.619349	0.239569	0.136729
113	S	0.6122	0.225245	0.361463
114	C	0.581956	0.164652	0.5997
115	S	0.565402	0.131486	0.698657
116	C	0.534476	0.069522	0.284784
117	C	0.494327	0.989085	0.175786
118	N	0.484868	0.970126	0.029064
119	C	0.483734	0.967806	0.503068
120	S	0.469258	0.938798	0.356063
121	C	0.432177	0.864546	0.665387
122	C	0.404403	0.808907	0.923097
123	H	0.368671	0.737337	0.88285
124	H	0.408255	0.816644	0.307847
125	H	0.459795	0.919906	0.853803
126	H	0.509947	0.020346	0.683919
127	H	0.505308	0.011111	0.562635
128	H	0.564435	0.129557	0.184706
129	H	0.585409	0.171577	0.991994
130	H	0.63073	0.26237	0.117148
131	H	0.591147	0.183063	0.692155
132	H	0.539612	0.079801	0.146202
133	H	0.489469	0.979361	0.316086
134	H	0.494119	0.988596	0.437371
135	H	0.434977	0.87015	0.815297
136	H	0.414001	0.828129	0.008008
137	C	0.219899	0.609124	0
138	C	0.240895	0.619559	0.86327
139	S	0.226491	0.612395	0.638537
140	C	0.19229	0.595395	0.725928
141	C	0.164666	0.581661	0.596728
142	C	0.165563	0.582103	0.400302
143	S	0.132213	0.565523	0.301346
144	C	0.115645	0.557291	0.520726
145	C	0.084799	0.541957	0.544193
146	C	0.069907	0.534546	0.71522
147	C	0.039294	0.519331	0.694203
148	C	0.018499	0.508986	0.85041
149	C	0.989025	0.494333	0.824219
150	N	0.969962	0.48485	0.970941
151	C	0.981208	0.490436	0.149595
152	C	0.960412	0.480091	0.305802
153	C	0.967629	0.483673	0.496938
154	S	0.93846	0.469165	0.643942
155	C	0.914907	0.457463	0.455812
156	C	0.884061	0.442126	0.479278
157	C	0.863798	0.43205	0.334616
158	C	0.83504	0.417752	0.403274
159	C	0.807416	0.404017	0.274073
160	C	0.807851	0.404232	0.076904
161	C	0.779807	0.390288	0
162	C	0.758812	0.37985	0.136729
163	S	0.773216	0.387013	0.361463
164	C	0.834143	0.417307	0.5997
165	S	0.867493	0.43389	0.698657
166	C	0.929799	0.464872	0.284784
167	C	0.010681	0.505089	0.175786
168	N	0.029745	0.514572	0.029064
169	C	0.032077	0.515755	0.503068
170	S	0.061246	0.530262	0.356063
171	C	0.135909	0.567366	0.665387
172	C	0.191856	0.595182	0.923097
173	H	0.263822	0.630957	0.88285
174	H	0.184075	0.591304	0.307847
175	H	0.080243	0.539675	0.853803
176	H	0.979247	0.489475	0.683919
177	H	0.988533	0.494063	0.562635
178	H	0.869432	0.43485	0.184706
179	H	0.82718	0.413842	0.991994
180	H	0.735885	0.368451	0.117148
181	H	0.815631	0.408104	0.692155
182	H	0.919464	0.459739	0.146202
183	H	0.020459	0.509946	0.316086
184	H	0.011173	0.50537	0.437371
185	H	0.130274	0.564568	0.815297
186	H	0.172527	0.585575	0.008008
