data_C96H48N6O6S12_2023-05-13_16:07:20
#******************************************
#
# CIF file created by Zeo++
# Zeo++ is an open source package to
# analyze microporous materials
#
#*******************************************

_cell_length_a		50.6426   
_cell_length_b		50.941   
_cell_length_c		7   
_cell_angle_alpha		90   
_cell_angle_beta		90   
_cell_angle_gamma		119.744   

_symmetry_space_group_name_H-M		'P1'
_symmetry_Int_Tables_number		1
_symmetry_cell_setting		Monoclinic

loop_
_symmetry_equiv_pos_as_xyz
'+x,+y,+z'

loop_
_atom_site_label
_atom_site_type_symbol
_atom_site_fract_x
_atom_site_fract_y
_atom_site_fract_z
1	C	0.363938	0.673064	0.999995
2	O	0.39077	0.677769	0.999991
3	C	0.339687	0.641626	0.999998
4	C	0.3444	0.618453	0
5	N	0.374435	0.623872	0
6	C	0.308656	0.636046	3e-06
7	O	0.286861	0.608949	5e-06
8	C	0.301198	0.660224	6e-06
9	C	0.272643	0.654389	5e-06
10	N	0.249045	0.623559	0
11	C	0.326617	0.691411	4e-06
12	O	0.32069	0.712319	7e-06
13	C	0.358147	0.698393	0.999999
14	C	0.380554	0.726844	0.999998
15	N	0.376047	0.7521	0
16	H	0.325834	0.595894	1e-06
17	H	0.266617	0.671707	8e-06
18	H	0.403222	0.730907	0.999997
19	C	0.636062	0.326936	0.999995
20	O	0.60923	0.322231	0.999991
21	C	0.660313	0.358374	0.999998
22	C	0.6556	0.381547	0
23	N	0.625565	0.376128	0
24	C	0.691344	0.363954	3e-06
25	O	0.713139	0.391051	5e-06
26	C	0.698802	0.339776	6e-06
27	C	0.727357	0.345611	5e-06
28	N	0.750955	0.376441	0
29	C	0.673383	0.308589	4e-06
30	O	0.67931	0.287681	7e-06
31	C	0.641853	0.301607	0.999999
32	C	0.619446	0.273156	0.999998
33	N	0.623953	0.2479	0
34	H	0.674166	0.404106	1e-06
35	H	0.733383	0.328293	8e-06
36	H	0.596778	0.269093	0.999997
37	C	0.39277	0.605784	0
38	C	0.407786	0.590971	0.058139
39	C	0.408978	0.589795	0.261874
40	C	0.42448	0.574502	0.377538
41	C	0.42557	0.573427	0.573451
42	C	0.441134	0.558072	0.636544
43	C	0.451686	0.547662	0.488229
44	C	0.468695	0.530882	0.497548
45	C	0.476175	0.523503	0.675049
46	C	0.49219	0.507704	0.688469
47	C	0.501333	0.498684	0.524108
48	C	0.517466	0.482769	0.534868
49	C	0.526783	0.473578	0.370776
50	C	0.543745	0.456846	0.389209
51	C	0.552673	0.448042	0.553276
52	C	0.568761	0.43217	0.51578
53	C	0.571872	0.429098	0.323269
54	C	0.588444	0.41275	0.233559
55	C	0.601682	0.399693	0.3416
56	S	0.61786	0.383733	0.202341
57	C	0.60723	0.394216	0
58	C	0.591737	0.409499	0.033454
59	S	0.555492	0.445255	0.191193
60	C	0.519304	0.480956	0.193313
61	C	0.503286	0.496758	0.180129
62	C	0.494142	0.505778	0.344473
63	C	0.478009	0.521693	0.333489
64	S	0.442091	0.557128	0.272967
65	C	0.394732	0.60385	0.347677
66	S	0.380134	0.618251	0.183517
67	H	0.417399	0.581487	0.960362
68	H	0.415864	0.583002	0.669677
69	H	0.444243	0.555005	0.786238
70	H	0.469726	0.529865	0.807809
71	H	0.497431	0.502535	0.8295
72	H	0.522683	0.477623	0.675863
73	H	0.548046	0.452608	0.696731
74	H	0.57739	0.423661	0.626835
75	H	0.602874	0.39852	0.495234
76	H	0.583216	0.417902	0.921008
77	H	0.5257	0.474646	0.060054
78	H	0.498041	0.501931	0.039077
79	H	0.472846	0.526787	0.192083
80	H	0.391958	0.606586	0.498105
81	C	0.3941	0.788275	0
82	C	0.408886	0.817902	0.058139
83	C	0.410059	0.820254	0.261874
84	C	0.425323	0.85084	0.377538
85	C	0.426397	0.852991	0.573451
86	C	0.441722	0.8837	0.636544
87	C	0.452113	0.90452	0.488229
88	C	0.46886	0.938079	0.497548
89	C	0.476225	0.952837	0.675049
90	C	0.491994	0.984435	0.688469
91	C	0.500997	0.002475	0.524108
92	C	0.516882	0.034305	0.534868
93	C	0.526055	0.052687	0.370776
94	C	0.542755	0.086153	0.389209
95	C	0.551543	0.103765	0.553276
96	C	0.567385	0.135508	0.51578
97	C	0.570451	0.141649	0.323269
98	C	0.586768	0.174345	0.233559
99	C	0.5998	0.200462	0.3416
100	S	0.61573	0.232381	0.202341
101	C	0.605267	0.211413	0
102	C	0.590013	0.180845	0.033454
103	S	0.554325	0.109333	0.191193
104	C	0.518692	0.037932	0.193313
105	C	0.502919	0.006327	0.180129
106	C	0.493916	0.988286	0.344473
107	C	0.478032	0.956456	0.333489
108	S	0.442664	0.885588	0.272967
109	C	0.396031	0.792145	0.347677
110	S	0.381658	0.763343	0.183517
111	H	0.418352	0.83687	0.960362
112	H	0.416839	0.83384	0.669677
113	H	0.444783	0.889833	0.786238
114	H	0.469875	0.940113	0.807809
115	H	0.497154	0.994774	0.8295
116	H	0.522018	0.044598	0.675863
117	H	0.546985	0.094634	0.696731
118	H	0.575878	0.15253	0.626835
119	H	0.600971	0.202811	0.495234
120	H	0.581625	0.164036	0.921008
121	H	0.524989	0.050551	0.060054
122	H	0.497756	0.99598	0.039077
123	H	0.472948	0.946269	0.192083
124	H	0.393301	0.786673	0.498105
125	C	0.212658	0.605472	0
126	C	0.182856	0.590658	0.058139
127	C	0.180491	0.589483	0.261874
128	C	0.149725	0.57419	0.377538
129	C	0.147561	0.573114	0.573451
130	C	0.116672	0.55776	0.636544
131	C	0.095729	0.54735	0.488229
132	C	0.061972	0.53057	0.497548
133	C	0.047127	0.523191	0.675049
134	C	0.015344	0.507392	0.688469
135	C	0.997197	0.498372	0.524108
136	C	0.96518	0.482457	0.534868
137	C	0.94669	0.473266	0.370776
138	C	0.913027	0.456532	0.389209
139	C	0.895312	0.447725	0.553276
140	C	0.863382	0.431853	0.51578
141	C	0.857205	0.428784	0.323269
142	C	0.824316	0.412436	0.233559
143	C	0.798045	0.399376	0.3416
144	S	0.765939	0.383417	0.202341
145	C	0.787031	0.393903	0
146	C	0.817778	0.409187	0.033454
147	S	0.889711	0.444944	0.191193
148	C	0.961532	0.480644	0.193313
149	C	0.993323	0.496446	0.180129
150	C	0.01147	0.505467	0.344473
151	C	0.043487	0.521382	0.333489
152	S	0.114773	0.556816	0.272967
153	C	0.208765	0.603536	0.347677
154	S	0.237736	0.617937	0.183517
155	H	0.163777	0.581175	0.960362
156	H	0.166825	0.582689	0.669677
157	H	0.110502	0.554693	0.786238
158	H	0.059926	0.529553	0.807809
159	H	0.004943	0.502222	0.8295
160	H	0.954827	0.47731	0.675863
161	H	0.904496	0.452289	0.696731
162	H	0.84626	0.423341	0.626835
163	H	0.795683	0.3982	0.495234
164	H	0.834686	0.417593	0.921008
165	H	0.948838	0.474334	0.060054
166	H	0.00373	0.50162	0.039077
167	H	0.053734	0.526475	0.192083
168	H	0.214269	0.606272	0.498105
