data_C57H30N6O6S6_2023-05-13_01:56:04
#******************************************
#
# CIF file created by Zeo++
# Zeo++ is an open source package to
# analyze microporous materials
#
#*******************************************

_cell_length_a		34.8349   
_cell_length_b		35.1335   
_cell_length_c		7   
_cell_angle_alpha		90   
_cell_angle_beta		90   
_cell_angle_gamma		119.629   

_symmetry_space_group_name_H-M		'P1'
_symmetry_Int_Tables_number		1
_symmetry_cell_setting		Monoclinic

loop_
_symmetry_equiv_pos_as_xyz
'+x,+y,+z'

loop_
_atom_site_label
_atom_site_type_symbol
_atom_site_fract_x
_atom_site_fract_y
_atom_site_fract_z
1	C	0.377804	0.675932	0.999995
2	O	0.416796	0.682746	0.999991
3	C	0.342654	0.630401	0.999998
4	C	0.349585	0.59684	0
5	N	0.393231	0.604688	0
6	C	0.297561	0.622319	3e-06
7	O	0.265967	0.583076	5e-06
8	C	0.286637	0.657336	6e-06
9	C	0.245144	0.648886	5e-06
10	N	0.210942	0.604236	0
11	C	0.323485	0.702503	4e-06
12	O	0.314798	0.732784	7e-06
13	C	0.369299	0.712614	0.999999
14	C	0.401779	0.75382	0.999998
15	N	0.395141	0.790397	0
16	H	0.322671	0.564169	1e-06
17	H	0.236325	0.673967	8e-06
18	H	0.434718	0.759704	0.999997
19	C	0.622196	0.324068	0.999995
20	O	0.583204	0.317254	0.999991
21	C	0.657346	0.369599	0.999998
22	C	0.650415	0.40316	0
23	N	0.606769	0.395312	0
24	C	0.702439	0.377681	3e-06
25	O	0.734033	0.416924	5e-06
26	C	0.713363	0.342664	6e-06
27	C	0.754856	0.351114	5e-06
28	N	0.789058	0.395764	0
29	C	0.676515	0.297497	4e-06
30	O	0.685202	0.267216	7e-06
31	C	0.630701	0.287386	0.999999
32	C	0.598221	0.24618	0.999998
33	N	0.604859	0.209603	0
34	H	0.677329	0.435831	1e-06
35	H	0.763675	0.326033	8e-06
36	H	0.565282	0.240296	0.999997
37	C	0.580053	0.421507	0
38	C	0.582367	0.418884	0.194246
39	C	0.561131	0.43963	0.287571
40	C	0.543252	0.45746	0.162244
41	C	0.519828	0.480464	0.200348
42	C	0.51154	0.488651	0.378839
43	C	0.486523	0.513218	0.374205
44	C	0.481462	0.51813	0.162653
45	C	0.460453	0.538734	0.066396
46	C	0.455391	0.543646	0.872641
47	C	0.431992	0.566615	0.834059
48	C	0.419947	0.578493	0
49	S	0.436046	0.562744	0.19825
50	C	0.501042	0.498876	0.06845
51	S	0.553224	0.44805	0.929201
52	H	0.59821	0.403152	0.267203
53	H	0.559178	0.44127	0.441522
54	H	0.520896	0.479511	0.510692
55	H	0.454411	0.494303	0.444248
56	H	0.505476	0.545097	0.444066
57	H	0.467924	0.531304	0.761277
58	H	0.424712	0.573723	0.692407
59	H	0.503209	0.4967	0.915356
60	C	0.577815	0.15676	0
61	C	0.580434	0.16165	0.194246
62	C	0.559746	0.120081	0.287571
63	C	0.541963	0.084723	0.162244
64	C	0.519022	0.038751	0.200348
65	C	0.510857	0.022438	0.378839
66	C	0.486358	0.973341	0.374205
67	C	0.481459	0.963466	0.162653
68	C	0.460913	0.922263	0.066396
69	C	0.456015	0.912388	0.872641
70	C	0.433109	0.866475	0.834059
71	C	0.421264	0.842788	0
72	S	0.436969	0.874323	0.19825
73	C	0.500661	0.001919	0.06845
74	S	0.551344	0.103913	0.929201
75	H	0.596123	0.192914	0.267203
76	H	0.558112	0.116523	0.441522
77	H	0.519972	0.040752	0.510692
78	H	0.505604	0.960394	0.444248
79	H	0.454183	0.960422	0.444066
80	H	0.468324	0.937018	0.761277
81	H	0.426022	0.852229	0.692407
82	H	0.502831	0.006219	0.915356
83	C	0.841446	0.421054	0
84	C	0.836513	0.418787	0.194246
85	C	0.878437	0.439611	0.287571
86	C	0.914099	0.457139	0.162244
87	C	0.960464	0.480106	0.200348
88	C	0.976917	0.488233	0.378839
89	C	0.026433	0.512761	0.374205
90	C	0.036393	0.517725	0.162653
91	C	0.077948	0.538324	0.066396
92	C	0.087907	0.543287	0.872641
93	C	0.134213	0.566231	0.834059
94	C	0.158103	0.57804	0
95	S	0.126299	0.562255	0.19825
96	C	0.997611	0.498526	0.06845
97	S	0.894746	0.447358	0.929201
98	H	0.804981	0.403255	0.267203
99	H	0.882024	0.441528	0.441522
100	H	0.958446	0.479058	0.510692
101	H	0.039299	0.544624	0.444248
102	H	0.039655	0.493802	0.444066
103	H	0.063066	0.531	0.761277
104	H	0.148581	0.57337	0.692407
105	H	0.993274	0.496402	0.915356
