data_C54H24N12O6_2023-05-13_14:13:02
#******************************************
#
# CIF file created by Zeo++
# Zeo++ is an open source package to
# analyze microporous materials
#
#*******************************************

_cell_length_a		20.6607   
_cell_length_b		20.9597   
_cell_length_c		7   
_cell_angle_alpha		90   
_cell_angle_beta		90   
_cell_angle_gamma		119.377   

_symmetry_space_group_name_H-M		'P1'
_symmetry_Int_Tables_number		1
_symmetry_cell_setting		Monoclinic

loop_
_symmetry_equiv_pos_as_xyz
'+x,+y,+z'

loop_
_atom_site_label
_atom_site_type_symbol
_atom_site_fract_x
_atom_site_fract_y
_atom_site_fract_z
1	C	0.408232	0.68216	0.999995
2	O	0.473917	0.693552	0.999991
3	C	0.349358	0.606028	0.999998
4	C	0.36133	0.549911	0
5	N	0.434854	0.563034	0
6	C	0.273399	0.592515	3e-06
7	O	0.220466	0.526896	5e-06
8	C	0.25468	0.651065	6e-06
9	C	0.184792	0.636935	5e-06
10	N	0.127509	0.562277	0
11	C	0.31642	0.726588	4e-06
12	O	0.301513	0.777221	7e-06
13	C	0.393578	0.743495	0.999999
14	C	0.447987	0.812394	0.999998
15	N	0.436482	0.873555	0
16	H	0.316232	0.495282	1e-06
17	H	0.169708	0.678873	8e-06
18	H	0.503475	0.822232	0.999997
19	C	0.591768	0.31784	0.999995
20	O	0.526083	0.306448	0.999991
21	C	0.650642	0.393972	0.999998
22	C	0.63867	0.450089	0
23	N	0.565146	0.436966	0
24	C	0.726601	0.407485	3e-06
25	O	0.779534	0.473104	5e-06
26	C	0.74532	0.348935	6e-06
27	C	0.815208	0.363065	5e-06
28	N	0.872491	0.437723	0
29	C	0.68358	0.273412	4e-06
30	O	0.698487	0.222779	7e-06
31	C	0.606422	0.256505	0.999999
32	C	0.552013	0.187606	0.999998
33	N	0.563518	0.126445	0
34	H	0.683768	0.504718	1e-06
35	H	0.830292	0.321127	8e-06
36	H	0.496525	0.177768	0.999997
37	C	0.480122	0.519233	0
38	C	0.519878	0.480767	0
39	C	0.540138	0.461166	0.174913
40	C	0.580229	0.422373	0.188027
41	C	0.598641	0.404561	0.363179
42	C	0.576582	0.425902	0.524166
43	N	0.538526	0.462722	0.518783
44	C	0.51987	0.480777	0.349239
45	C	0.480133	0.519226	0.349239
46	N	0.461474	0.537278	0.518783
47	C	0.423418	0.574098	0.524167
48	C	0.401361	0.595441	0.363179
49	C	0.419771	0.577628	0.188027
50	C	0.459865	0.538837	0.174913
51	H	0.597971	0.405204	0.06118
52	H	0.629244	0.374952	0.372684
53	H	0.58893	0.413955	0.666203
54	H	0.411071	0.586046	0.666203
55	H	0.370759	0.625051	0.372684
56	H	0.402027	0.594794	0.061179
57	C	0.480078	0.961156	0
58	C	0.518364	0.038089	0
59	C	0.537873	0.077293	0.174913
60	C	0.576484	0.154878	0.188027
61	C	0.594213	0.190505	0.363179
62	C	0.572971	0.147819	0.524166
63	N	0.536324	0.074178	0.518783
64	C	0.518354	0.038072	0.349239
65	C	0.480084	0.961174	0.349239
66	N	0.462118	0.925068	0.518783
67	C	0.42547	0.851426	0.524167
68	C	0.404227	0.808741	0.363179
69	C	0.421957	0.844368	0.188027
70	C	0.460566	0.921952	0.174913
71	H	0.593573	0.189214	0.06118
72	H	0.623683	0.249724	0.372684
73	H	0.584863	0.171715	0.666203
74	H	0.413578	0.827531	0.666203
75	H	0.374756	0.749522	0.372684
76	H	0.404871	0.810032	0.061179
77	C	0.038645	0.518476	0
78	C	0.960603	0.48001	0
79	C	0.920834	0.460407	0.174913
80	C	0.842131	0.421615	0.188027
81	C	0.805991	0.4038	0.363179
82	C	0.849291	0.425144	0.524166
83	N	0.923994	0.461966	0.518783
84	C	0.960621	0.480017	0.349239
85	C	0.038627	0.518465	0.349239
86	N	0.075253	0.53652	0.518783
87	C	0.149956	0.573342	0.524167
88	C	0.193256	0.594684	0.363179
89	C	0.157117	0.57687	0.188027
90	C	0.078414	0.538077	0.174913
91	H	0.8073	0.404448	0.06118
92	H	0.745918	0.374189	0.372684
93	H	0.825051	0.413196	0.666203
94	H	0.174195	0.585289	0.666203
95	H	0.25333	0.624294	0.372684
96	H	0.191947	0.594039	0.061179
