data_C78H36N12O6S6_2023-05-13_20:03:27
#******************************************
#
# CIF file created by Zeo++
# Zeo++ is an open source package to
# analyze microporous materials
#
#*******************************************

_cell_length_a		35.1938   
_cell_length_b		35.4924   
_cell_length_c		7   
_cell_angle_alpha		90   
_cell_angle_beta		90   
_cell_angle_gamma		119.633   

_symmetry_space_group_name_H-M		'P1'
_symmetry_Int_Tables_number		1
_symmetry_cell_setting		Monoclinic

loop_
_symmetry_equiv_pos_as_xyz
'+x,+y,+z'

loop_
_atom_site_label
_atom_site_type_symbol
_atom_site_fract_x
_atom_site_fract_y
_atom_site_fract_z
1	C	0.377351	0.675839	0.999995
2	O	0.415947	0.682584	0.999991
3	C	0.342556	0.630766	0.999998
4	C	0.349414	0.597544	0
5	N	0.392616	0.605313	0
6	C	0.297923	0.622766	3e-06
7	O	0.266648	0.583918	5e-06
8	C	0.287113	0.65743	6e-06
9	C	0.246042	0.649065	5e-06
10	N	0.212185	0.604865	0
11	C	0.323588	0.702142	4e-06
12	O	0.314992	0.732118	7e-06
13	C	0.368936	0.712151	0.999999
14	C	0.401087	0.752942	0.999998
15	N	0.39452	0.789151	0
16	H	0.322772	0.565202	1e-06
17	H	0.237314	0.673893	8e-06
18	H	0.433692	0.758766	0.999997
19	C	0.622649	0.324161	0.999995
20	O	0.584053	0.317416	0.999991
21	C	0.657444	0.369234	0.999998
22	C	0.650586	0.402456	0
23	N	0.607384	0.394687	0
24	C	0.702077	0.377234	3e-06
25	O	0.733352	0.416082	5e-06
26	C	0.712887	0.34257	6e-06
27	C	0.753958	0.350935	5e-06
28	N	0.787815	0.395135	0
29	C	0.676412	0.297858	4e-06
30	O	0.685008	0.267882	7e-06
31	C	0.631064	0.287849	0.999999
32	C	0.598913	0.247058	0.999998
33	N	0.60548	0.210849	0
34	H	0.677228	0.434798	1e-06
35	H	0.762686	0.326107	8e-06
36	H	0.566308	0.241234	0.999997
37	C	0.580943	0.420619	0
38	C	0.542759	0.382145	0.976839
39	S	0.506052	0.37457	0.153886
40	C	0.541591	0.423033	0.259768
41	C	0.528244	0.436519	0.433438
42	C	0.511009	0.465239	0.428876
43	C	0.504695	0.482255	0.258097
44	C	0.48773	0.510207	0.260244
45	C	0.476394	0.522224	0.433248
46	C	0.45896	0.550747	0.442221
47	C	0.450658	0.569254	0.270594
48	C	0.414645	0.551023	0.151471
49	C	0.419057	0.579381	0
50	C	0.457494	0.61811	0.005747
51	S	0.488815	0.620323	0.197309
52	C	0.448446	0.561464	0.618436
53	C	0.45557	0.543755	0.779469
54	N	0.471962	0.516625	0.775425
55	C	0.48257	0.505416	0.606614
56	C	0.499735	0.476972	0.60441
57	N	0.505442	0.460885	0.771079
58	C	0.521777	0.433698	0.770905
59	C	0.53364	0.420707	0.607579
60	C	0.580772	0.444416	0.162153
61	H	0.534395	0.358067	0.866098
62	H	0.512829	0.473886	0.120331
63	H	0.483598	0.522559	0.124127
64	H	0.386845	0.518972	0.17337
65	H	0.468899	0.645214	0.908396
66	H	0.43502	0.583072	0.630045
67	H	0.448094	0.550905	0.920882
68	H	0.525142	0.422457	0.910845
69	H	0.546775	0.398809	0.615874
70	H	0.607608	0.475507	0.206199
71	C	0.578708	0.158539	0
72	C	0.617648	0.159006	0.976839
73	S	0.625529	0.130259	0.153886
74	C	0.576573	0.117266	0.259768
75	C	0.563121	0.090693	0.433438
76	C	0.53439	0.045157	0.428876
77	C	0.517339	0.022029	0.258097
78	C	0.489379	0.977522	0.260244
79	C	0.477388	0.954395	0.433248
80	C	0.448857	0.908859	0.442221
81	C	0.430322	0.882286	0.270594
82	C	0.448907	0.864803	0.151471
83	C	0.42038	0.841014	0
84	C	0.381183	0.840544	0.005747
85	S	0.378727	0.869291	0.197309
86	C	0.438167	0.887834	0.618436
87	C	0.455907	0.912449	0.779469
88	N	0.483047	0.955574	0.775425
89	C	0.49423	0.97718	0.606614
90	C	0.522684	0.022372	0.60441
91	N	0.538806	0.043979	0.771079
92	C	0.566003	0.087103	0.770905
93	C	0.578969	0.111719	0.607579
94	C	0.554798	0.134749	0.162153
95	H	0.641902	0.174642	0.866098
96	H	0.525688	0.038372	0.120331
97	H	0.476998	0.961179	0.124127
98	H	0.481316	0.869153	0.17337
99	H	0.353865	0.824908	0.908396
100	H	0.416554	0.85312	0.630045
101	H	0.448779	0.897967	0.920882
102	H	0.577273	0.101586	0.910845
103	H	0.600875	0.146432	0.615874
104	H	0.52336	0.1304	0.206199
105	C	0.83967	0.420171	0
106	C	0.838914	0.458177	0.976839
107	S	0.86774	0.494498	0.153886
108	C	0.881157	0.45903	0.259768
109	C	0.907956	0.472117	0.433438
110	C	0.953922	0.488932	0.428876
111	C	0.977286	0.495044	0.258097
112	C	0.022212	0.511598	0.260244
113	C	0.045539	0.52271	0.433248
114	C	0.091503	0.539722	0.442221
115	C	0.11834	0.547788	0.270594
116	C	0.135769	0.583502	0.151471
117	C	0.159883	0.578933	0
118	C	0.160644	0.540674	0.005747
119	S	0.131778	0.509714	0.197309
120	C	0.112708	0.550031	0.618436
121	C	0.087844	0.543124	0.779469
122	N	0.044312	0.52713	0.775425
123	C	0.022521	0.516732	0.606614
124	C	0.976902	0.499983	0.60441
125	N	0.955073	0.494464	0.771079
126	C	0.911541	0.478526	0.770905
127	C	0.886713	0.466903	0.607579
128	C	0.863751	0.420163	0.162153
129	H	0.823024	0.466619	0.866098
130	H	0.960803	0.48707	0.120331
131	H	0.038725	0.51559	0.124127
132	H	0.131159	0.611203	0.17337
133	H	0.176557	0.529207	0.908396
134	H	0.147747	0.563136	0.630045
135	H	0.102448	0.550457	0.920882
136	H	0.896906	0.475285	0.910845
137	H	0.851671	0.454087	0.615874
138	H	0.868352	0.393421	0.206199
