data_C72H36N6O6S12_2023-05-13_10:38:42
#******************************************
#
# CIF file created by Zeo++
# Zeo++ is an open source package to
# analyze microporous materials
#
#*******************************************

_cell_length_a		41.6551   
_cell_length_b		41.9536   
_cell_length_c		7   
_cell_angle_alpha		90   
_cell_angle_beta		90   
_cell_angle_gamma		119.689   

_symmetry_space_group_name_H-M		'P1'
_symmetry_Int_Tables_number		1
_symmetry_cell_setting		Monoclinic

loop_
_symmetry_equiv_pos_as_xyz
'+x,+y,+z'

loop_
_atom_site_label
_atom_site_type_symbol
_atom_site_fract_x
_atom_site_fract_y
_atom_site_fract_z
1	C	0.370533	0.674431	0.999995
2	O	0.403148	0.68014	0.999991
3	C	0.341091	0.636278	0.999998
4	C	0.346852	0.608156	0
5	N	0.383361	0.614733	0
6	C	0.303373	0.629506	3e-06
7	O	0.276912	0.596623	5e-06
8	C	0.294274	0.658848	6e-06
9	C	0.259565	0.651767	5e-06
10	N	0.230917	0.614353	0
11	C	0.325134	0.696695	4e-06
12	O	0.3179	0.722069	7e-06
13	C	0.363458	0.705168	0.999999
14	C	0.390661	0.739696	0.999998
15	N	0.385148	0.770345	0
16	H	0.324312	0.58078	1e-06
17	H	0.252216	0.672784	8e-06
18	H	0.418214	0.744626	0.999997
19	C	0.629467	0.325569	0.999995
20	O	0.596852	0.31986	0.999991
21	C	0.658909	0.363722	0.999998
22	C	0.653148	0.391844	0
23	N	0.616639	0.385267	0
24	C	0.696627	0.370494	3e-06
25	O	0.723088	0.403377	5e-06
26	C	0.705726	0.341152	6e-06
27	C	0.740435	0.348233	5e-06
28	N	0.769083	0.385647	0
29	C	0.674866	0.303305	4e-06
30	O	0.6821	0.277931	7e-06
31	C	0.636542	0.294832	0.999999
32	C	0.609339	0.260304	0.999998
33	N	0.614852	0.229655	0
34	H	0.675688	0.41922	1e-06
35	H	0.747784	0.327216	8e-06
36	H	0.581786	0.255374	0.999997
37	C	0.405676	0.592782	0
38	C	0.409033	0.57332	0.851829
39	C	0.42126	0.548929	0.918373
40	C	0.426853	0.550784	0.114426
41	C	0.438928	0.529496	0.225562
42	C	0.437848	0.497365	0.169701
43	C	0.452069	0.483225	0.311277
44	C	0.464536	0.505026	0.47256
45	C	0.480182	0.500662	0.64465
46	C	0.505878	0.49031	0.658581
47	C	0.524542	0.484464	0.503819
48	C	0.540363	0.505048	0.341382
49	C	0.556833	0.489663	0.221195
50	C	0.553991	0.457735	0.294291
51	C	0.567398	0.434817	0.211469
52	C	0.56677	0.404152	0.290293
53	C	0.582378	0.388146	0.167855
54	C	0.594324	0.407218	0
55	S	0.587208	0.443468	0.987376
56	S	0.531434	0.447353	0.510318
57	S	0.457272	0.541774	0.450836
58	S	0.416807	0.582372	0.214277
59	H	0.403196	0.576128	0.703966
60	H	0.425899	0.531015	0.824973
61	H	0.427014	0.484019	0.03373
62	H	0.453096	0.458057	0.294686
63	H	0.469832	0.505776	0.777338
64	H	0.513711	0.486513	0.801631
65	H	0.54015	0.530213	0.309041
66	H	0.570282	0.502011	0.087275
67	H	0.555658	0.393343	0.430421
68	H	0.584506	0.36412	0.202941
69	C	0.407047	0.814246	0
70	C	0.426567	0.83691	0.851829
71	C	0.45098	0.87325	0.918373
72	C	0.449083	0.876943	0.114426
73	C	0.470382	0.91005	0.225562
74	C	0.502649	0.940912	0.169701
75	C	0.516757	0.969038	0.311277
76	C	0.49479	0.959713	0.47256
77	C	0.499075	0.979537	0.64465
78	C	0.509308	0.015258	0.658581
79	C	0.515061	0.039541	0.503819
80	C	0.494295	0.034745	0.341382
81	C	0.509639	0.066336	0.221195
82	C	0.541714	0.095253	0.294291
83	C	0.564641	0.131298	0.211469
84	C	0.595433	0.161148	0.290293
85	C	0.611407	0.192504	0.167855
86	C	0.592183	0.185375	0
87	S	0.555831	0.142308	0.987376
88	S	0.552279	0.083242	0.510318
89	S	0.457939	0.916005	0.450836
90	S	0.41743	0.835609	0.214277
91	H	0.423784	0.828342	0.703966
92	H	0.468938	0.895644	0.824973
93	H	0.516116	0.94345	0.03373
94	H	0.542021	0.995067	0.294686
95	H	0.494004	0.96421	0.777338
96	H	0.513071	0.026785	0.801631
97	H	0.46903	0.009527	0.309041
98	H	0.497157	0.067377	0.087275
99	H	0.606355	0.160891	0.430421
100	H	0.635517	0.218486	0.202941
101	C	0.186703	0.592403	0
102	C	0.163826	0.589201	0.851829
103	C	0.127186	0.577252	0.918373
104	C	0.12349	0.571705	0.114426
105	C	0.090117	0.559886	0.225562
106	C	0.058928	0.561155	0.169701
107	C	0.0306	0.547168	0.311277
108	C	0.0401	0.534692	0.47256
109	C	0.020169	0.519232	0.64465
110	C	0.98424	0.493863	0.658581
111	C	0.959823	0.475426	0.503819
112	C	0.964769	0.459638	0.341382
113	C	0.932954	0.443432	0.221195
114	C	0.903721	0.446444	0.294291
115	C	0.867387	0.433317	0.211469
116	C	0.837223	0.43413	0.290293
117	C	0.805641	0.418782	0.167855
118	C	0.812919	0.406838	0
119	S	0.856388	0.413656	0.987376
120	S	0.915714	0.468836	0.510318
121	S	0.084215	0.541652	0.450836
122	S	0.165189	0.581451	0.214277
123	H	0.172446	0.594961	0.703966
124	H	0.104589	0.572772	0.824973
125	H	0.056296	0.571962	0.03373
126	H	0.004309	0.546308	0.294686
127	H	0.03559	0.529445	0.777338
128	H	0.972644	0.486134	0.801631
129	H	0.990246	0.459692	0.309041
130	H	0.931987	0.430043	0.087275
131	H	0.837413	0.445197	0.430421
132	H	0.779404	0.416826	0.202941
