data_C90H42N6O6S6_2023-05-12_20:33:56
#******************************************
#
# CIF file created by Zeo++
# Zeo++ is an open source package to
# analyze microporous materials
#
#*******************************************

_cell_length_a		44.0032   
_cell_length_b		44.3017   
_cell_length_c		7   
_cell_angle_alpha		90   
_cell_angle_beta		90   
_cell_angle_gamma		119.706   

_symmetry_space_group_name_H-M		'P1'
_symmetry_Int_Tables_number		1
_symmetry_cell_setting		Monoclinic

loop_
_symmetry_equiv_pos_as_xyz
'+x,+y,+z'

loop_
_atom_site_label
_atom_site_type_symbol
_atom_site_fract_x
_atom_site_fract_y
_atom_site_fract_z
1	C	0.36855	0.67402	0.999995
2	O	0.399426	0.679428	0.999991
3	C	0.340668	0.637884	0.999998
4	C	0.346113	0.611248	0
5	N	0.380675	0.617477	0
6	C	0.30496	0.63147	3e-06
7	O	0.279901	0.600324	5e-06
8	C	0.296355	0.659261	6e-06
9	C	0.263497	0.652555	5e-06
10	N	0.236366	0.617118	0
11	C	0.325581	0.695109	4e-06
12	O	0.318741	0.719141	7e-06
13	C	0.361862	0.703133	0.999999
14	C	0.387625	0.735836	0.999998
15	N	0.382416	0.764866	0
16	H	0.324766	0.585319	1e-06
17	H	0.256546	0.67246	8e-06
18	H	0.413709	0.740506	0.999997
19	C	0.63145	0.32598	0.999995
20	O	0.600574	0.320572	0.999991
21	C	0.659332	0.362116	0.999998
22	C	0.653887	0.388752	0
23	N	0.619325	0.382523	0
24	C	0.69504	0.36853	3e-06
25	O	0.720099	0.399676	5e-06
26	C	0.703645	0.340739	6e-06
27	C	0.736503	0.347445	5e-06
28	N	0.763634	0.382882	0
29	C	0.674419	0.304891	4e-06
30	O	0.681259	0.280859	7e-06
31	C	0.638138	0.296867	0.999999
32	C	0.612375	0.264164	0.999998
33	N	0.617584	0.235134	0
34	H	0.675234	0.414681	1e-06
35	H	0.743454	0.32754	8e-06
36	H	0.586291	0.259494	0.999997
37	C	0.401792	0.596687	0
38	C	0.403894	0.594622	0.194044
39	C	0.422164	0.576636	0.244397
40	C	0.433438	0.565532	0.087575
41	C	0.453052	0.546222	0.082979
42	C	0.462722	0.536701	0.911535
43	C	0.481297	0.518413	0.909058
44	C	0.490778	0.509078	0.737107
45	C	0.509221	0.490921	0.737107
46	C	0.518702	0.481586	0.909058
47	C	0.537277	0.463298	0.911535
48	C	0.546948	0.453778	0.082979
49	C	0.566561	0.434467	0.087574
50	C	0.577833	0.423362	0.244396
51	C	0.596104	0.405376	0.194044
52	C	0.598208	0.403313	0
53	S	0.578908	0.42232	0.879762
54	C	0.537276	0.463301	0.254452
55	C	0.518703	0.481587	0.25715
56	C	0.509222	0.490921	0.429134
57	C	0.490778	0.509079	0.429134
58	C	0.481297	0.518413	0.25715
59	C	0.462724	0.536699	0.254452
60	C	0.49064	0.509214	0.083115
61	C	0.509359	0.490785	0.083115
62	S	0.421093	0.577681	0.879762
63	H	0.393123	0.605229	0.2957
64	H	0.426628	0.572244	0.391296
65	H	0.455914	0.543405	0.774744
66	H	0.48387	0.515879	0.600822
67	H	0.516128	0.48412	0.600822
68	H	0.544085	0.456594	0.774745
69	H	0.573368	0.427751	0.391295
70	H	0.606874	0.394768	0.2957
71	H	0.544144	0.456539	0.390781
72	H	0.516125	0.484125	0.565417
73	H	0.483875	0.515876	0.565417
74	H	0.455856	0.543461	0.390781
75	C	0.40316	0.806447	0
76	C	0.405221	0.810581	0.194044
77	C	0.423168	0.846555	0.244397
78	C	0.434247	0.868757	0.087575
79	C	0.453515	0.907378	0.082979
80	C	0.463015	0.926418	0.911535
81	C	0.481263	0.962994	0.909058
82	C	0.490577	0.981663	0.737107
83	C	0.508695	0.017978	0.737107
84	C	0.51801	0.036647	0.909058
85	C	0.536258	0.073223	0.911535
86	C	0.545757	0.092264	0.082979
87	C	0.565026	0.130884	0.087574
88	C	0.576106	0.153086	0.244396
89	C	0.594053	0.189061	0.194044
90	C	0.596111	0.193195	0
91	S	0.577145	0.155186	0.879762
92	C	0.536255	0.073219	0.254452
93	C	0.518009	0.036647	0.25715
94	C	0.508695	0.017979	0.429134
95	C	0.490576	0.981662	0.429134
96	C	0.481263	0.962994	0.25715
97	C	0.463017	0.926423	0.254452
98	C	0.490442	0.981392	0.083115
99	C	0.50883	0.01825	0.083115
100	S	0.422125	0.844455	0.879762
101	H	0.394637	0.78937	0.2957
102	H	0.427549	0.855341	0.391296
103	H	0.456326	0.913013	0.774744
104	H	0.483791	0.968062	0.600822
105	H	0.515481	0.031579	0.600822
106	H	0.542947	0.086629	0.774745
107	H	0.571726	0.1443	0.391295
108	H	0.604638	0.210272	0.2957
109	H	0.543001	0.086742	0.390781
110	H	0.515476	0.031571	0.565417
111	H	0.483795	0.96807	0.565417
112	H	0.45627	0.912899	0.390781
113	C	0.194504	0.596328	0
114	C	0.190342	0.594258	0.194044
115	C	0.154124	0.576271	0.244397
116	C	0.131772	0.565172	0.087575
117	C	0.09289	0.545862	0.082979
118	C	0.07372	0.536342	0.911535
119	C	0.036897	0.518054	0.909058
120	C	0.018101	0.50872	0.737107
121	C	0.981541	0.490563	0.737107
122	C	0.962745	0.481228	0.909058
123	C	0.925921	0.462941	0.911535
124	C	0.906752	0.45342	0.082979
125	C	0.86787	0.43411	0.087574
126	C	0.845517	0.423013	0.244396
127	C	0.8093	0.405025	0.194044
128	C	0.805138	0.402954	0
129	S	0.843403	0.421954	0.879762
130	C	0.925926	0.462942	0.254452
131	C	0.962745	0.481228	0.25715
132	C	0.981539	0.490561	0.429134
133	C	0.018102	0.50872	0.429134
134	C	0.036897	0.518054	0.25715
135	C	0.073716	0.536339	0.254452
136	C	0.018375	0.508855	0.083115
137	C	0.981267	0.490427	0.083115
138	S	0.156239	0.577325	0.879762
139	H	0.211697	0.604863	0.2957
140	H	0.145279	0.571876	0.391296
141	H	0.087217	0.543044	0.774744
142	H	0.031795	0.51552	0.600822
143	H	0.967847	0.483762	0.600822
144	H	0.912425	0.456238	0.774745
145	H	0.854363	0.427409	0.391295
146	H	0.787945	0.394422	0.2957
147	H	0.912311	0.45618	0.390781
148	H	0.967855	0.483765	0.565417
149	H	0.031787	0.515516	0.565417
150	H	0.087331	0.543101	0.390781
