data_C96H54N12O6S6_2023-05-10_22:46:33
#******************************************
#
# CIF file created by Zeo++
# Zeo++ is an open source package to
# analyze microporous materials
#
#*******************************************

_cell_length_a		45.4044   
_cell_length_b		45.703   
_cell_length_c		7   
_cell_angle_alpha		90   
_cell_angle_beta		90   
_cell_angle_gamma		119.715   

_symmetry_space_group_name_H-M		'P1'
_symmetry_Int_Tables_number		1
_symmetry_cell_setting		Monoclinic

loop_
_symmetry_equiv_pos_as_xyz
'+x,+y,+z'

loop_
_atom_site_label
_atom_site_type_symbol
_atom_site_fract_x
_atom_site_fract_y
_atom_site_fract_z
1	C	0.367465	0.673796	0.999995
2	O	0.397389	0.679038	0.999991
3	C	0.340436	0.638764	0.999998
4	C	0.345708	0.612943	0
5	N	0.379205	0.618981	0
6	C	0.30583	0.632546	3e-06
7	O	0.281538	0.602352	5e-06
8	C	0.297495	0.659487	6e-06
9	C	0.26565	0.652986	5e-06
10	N	0.23935	0.618633	0
11	C	0.325826	0.694239	4e-06
12	O	0.319201	0.717537	7e-06
13	C	0.360988	0.702018	0.999999
14	C	0.385962	0.733722	0.999998
15	N	0.380918	0.761864	0
16	H	0.325016	0.587806	1e-06
17	H	0.258917	0.672283	8e-06
18	H	0.411242	0.738249	0.999997
19	C	0.632535	0.326204	0.999995
20	O	0.602611	0.320962	0.999991
21	C	0.659564	0.361236	0.999998
22	C	0.654292	0.387057	0
23	N	0.620795	0.381019	0
24	C	0.69417	0.367454	3e-06
25	O	0.718462	0.397648	5e-06
26	C	0.702505	0.340513	6e-06
27	C	0.73435	0.347014	5e-06
28	N	0.76065	0.381367	0
29	C	0.674174	0.305761	4e-06
30	O	0.680799	0.282463	7e-06
31	C	0.639012	0.297982	0.999999
32	C	0.614038	0.266278	0.999998
33	N	0.619082	0.238136	0
34	H	0.674984	0.412194	1e-06
35	H	0.741083	0.327717	8e-06
36	H	0.588758	0.261751	0.999997
37	C	0.399667	0.598826	0
38	C	0.38709	0.611183	0.130095
39	C	0.394711	0.603646	0.327214
40	C	0.413578	0.585081	0.284563
41	C	0.425918	0.572907	0.432788
42	C	0.422666	0.576069	0.626102
43	S	0.441573	0.557438	0.749392
44	C	0.452822	0.546409	0.536897
45	C	0.471734	0.527794	0.530093
46	C	0.479826	0.519819	0.351112
47	C	0.497656	0.502266	0.335148
48	C	0.507991	0.4921	0.498561
49	C	0.525944	0.474423	0.485441
50	C	0.536466	0.464071	0.64855
51	C	0.555234	0.445585	0.622453
52	N	0.562796	0.438142	0.45363
53	C	0.580364	0.420829	0.473049
54	C	0.590509	0.410837	0.305242
55	C	0.585501	0.415798	0.121798
56	C	0.600333	0.401174	0
57	C	0.614528	0.387154	0.106782
58	C	0.609712	0.391885	0.314738
59	C	0.586232	0.415039	0.658442
60	S	0.569259	0.431758	0.812979
61	C	0.528443	0.471983	0.827614
62	C	0.51058	0.489572	0.843057
63	C	0.500181	0.4998	0.67985
64	C	0.482197	0.517505	0.693433
65	N	0.44302	0.556085	0.383207
66	C	0.416013	0.582719	0.094643
67	H	0.373551	0.624516	0.100059
68	H	0.371146	0.587933	0.405481
69	H	0.410415	0.627067	0.405636
70	H	0.410565	0.587965	0.700701
71	H	0.472183	0.527336	0.220912
72	H	0.503367	0.496636	0.193407
73	H	0.531912	0.468538	0.344671
74	H	0.572445	0.428686	0.072032
75	H	0.627475	0.374381	0.053676
76	H	0.595021	0.367432	0.385306
77	H	0.634307	0.406549	0.385392
78	H	0.599205	0.402252	0.711228
79	H	0.535812	0.464735	0.95931
80	H	0.50487	0.495204	0.984824
81	H	0.476507	0.523116	0.835161
82	H	0.428247	0.570689	0.022868
83	C	0.40103	0.802173	0
84	C	0.3887	0.777428	0.130095
85	C	0.396221	0.792472	0.327214
86	C	0.414747	0.82962	0.284563
87	C	0.426895	0.853948	0.432788
88	C	0.423739	0.847583	0.626102
89	S	0.442332	0.884838	0.749392
90	C	0.453337	0.906947	0.536897
91	C	0.471912	0.944191	0.530093
92	C	0.47987	0.960136	0.351112
93	C	0.497386	0.995251	0.335148
94	C	0.50753	0.015597	0.498561
95	C	0.52517	0.050958	0.485441
96	C	0.5355	0.071673	0.64855
97	C	0.553947	0.108646	0.622453
98	N	0.561374	0.123537	0.45363
99	C	0.578651	0.158155	0.473049
100	C	0.588621	0.178139	0.305242
101	C	0.583671	0.168246	0.121798
102	C	0.598264	0.197479	0
103	C	0.612255	0.22548	0.106782
104	C	0.607533	0.216005	0.314738
105	C	0.584428	0.169724	0.658442
106	S	0.567744	0.136287	0.812979
107	C	0.527605	0.055859	0.827614
108	C	0.510053	0.020676	0.843057
109	C	0.499847	0.000205	0.67985
110	C	0.482179	0.964784	0.693433
111	N	0.443682	0.887617	0.383207
112	C	0.417104	0.834381	0.094643
113	H	0.375395	0.75076	0.100059
114	H	0.412127	0.784751	0.405481
115	H	0.372624	0.784743	0.405636
116	H	0.411869	0.823768	0.700701
117	H	0.472369	0.94509	0.220912
118	H	0.503004	0.006507	0.193407
119	H	0.531043	0.062722	0.344671
120	H	0.570809	0.142498	0.072032
121	H	0.625	0.251006	0.053676
122	H	0.632161	0.225765	0.385306
123	H	0.592674	0.22579	0.385392
124	H	0.597188	0.19529	0.711228
125	H	0.534837	0.070366	0.95931
126	H	0.504433	0.009419	0.984824
127	H	0.47658	0.953569	0.835161
128	H	0.429107	0.858461	0.022868
129	C	0.198776	0.598478	0
130	C	0.223684	0.610867	0.130095
131	C	0.208541	0.60336	0.327214
132	C	0.171149	0.584776	0.284563
133	C	0.146661	0.572622	0.432788
134	C	0.153068	0.575825	0.626102
135	S	0.115569	0.557202	0.749392
136	C	0.093315	0.546122	0.536897
137	C	0.055827	0.527493	0.530093
138	C	0.039777	0.519523	0.351112
139	C	0.004431	0.501961	0.335148
140	C	0.983952	0.491781	0.498561
141	C	0.948359	0.474097	0.485441
142	C	0.927508	0.463734	0.64855
143	C	0.890292	0.445247	0.622453
144	N	0.875303	0.437798	0.45363
145	C	0.840458	0.420494	0.473049
146	C	0.820343	0.410502	0.305242
147	C	0.830301	0.415434	0.121798
148	C	0.800876	0.400825	0
149	C	0.772691	0.386844	0.106782
150	C	0.782229	0.391588	0.314738
151	C	0.828813	0.414715	0.658442
152	S	0.86247	0.431433	0.812979
153	C	0.943426	0.471636	0.827614
154	C	0.97884	0.48923	0.843057
155	C	0.999445	0.499473	0.67985
156	C	0.035098	0.517188	0.693433
157	N	0.112771	0.555776	0.383207
158	C	0.166357	0.582378	0.094643
159	H	0.250527	0.624202	0.100059
160	H	0.2162	0.626794	0.405481
161	H	0.216434	0.587669	0.405636
162	H	0.177039	0.587745	0.700701
163	H	0.054922	0.527052	0.220912
164	H	0.993102	0.496335	0.193407
165	H	0.936518	0.468219	0.344671
166	H	0.856219	0.428294	0.072032
167	H	0.746998	0.374091	0.053676
168	H	0.772292	0.406281	0.385306
169	H	0.772492	0.367139	0.385392
170	H	0.80308	0.401936	0.711228
171	H	0.928824	0.464377	0.95931
172	H	0.99017	0.494855	0.984824
173	H	0.046387	0.522792	0.835161
174	H	0.142119	0.570328	0.022868
