data_C90H36N12O6S18_2023-05-13_04:24:57
#******************************************
#
# CIF file created by Zeo++
# Zeo++ is an open source package to
# analyze microporous materials
#
#*******************************************

_cell_length_a		55.4159   
_cell_length_b		55.7143   
_cell_length_c		7   
_cell_angle_alpha		90   
_cell_angle_beta		90   
_cell_angle_gamma		119.766   

_symmetry_space_group_name_H-M		'P1'
_symmetry_Int_Tables_number		1
_symmetry_cell_setting		Monoclinic

loop_
_symmetry_equiv_pos_as_xyz
'+x,+y,+z'

loop_
_atom_site_label
_atom_site_type_symbol
_atom_site_fract_x
_atom_site_fract_y
_atom_site_fract_z
1	C	0.361305	0.672518	0.999995
2	O	0.385827	0.67682	0.999991
3	C	0.339129	0.643766	0.999998
4	C	0.343427	0.622574	0
5	N	0.370878	0.62753	0
6	C	0.31077	0.638663	3e-06
7	O	0.290841	0.613882	5e-06
8	C	0.303964	0.660774	6e-06
9	C	0.277866	0.655439	5e-06
10	N	0.256288	0.627244	0
11	C	0.327206	0.689296	4e-06
12	O	0.321798	0.708417	7e-06
13	C	0.356022	0.695681	0.999999
14	C	0.376511	0.721701	0.999998
15	N	0.372403	0.744798	0
16	H	0.326452	0.601943	1e-06
17	H	0.272366	0.671276	8e-06
18	H	0.397228	0.725416	0.999997
19	C	0.638695	0.327482	0.999995
20	O	0.614173	0.32318	0.999991
21	C	0.660871	0.356234	0.999998
22	C	0.656573	0.377426	0
23	N	0.629122	0.37247	0
24	C	0.68923	0.361337	3e-06
25	O	0.709159	0.386118	5e-06
26	C	0.696036	0.339226	6e-06
27	C	0.722134	0.344561	5e-06
28	N	0.743712	0.372756	0
29	C	0.672794	0.310704	4e-06
30	O	0.678202	0.291583	7e-06
31	C	0.643978	0.304319	0.999999
32	C	0.623489	0.278299	0.999998
33	N	0.627597	0.255202	0
34	H	0.673548	0.398057	1e-06
35	H	0.727634	0.328724	8e-06
36	H	0.602772	0.274584	0.999997
37	C	0.612374	0.389012	0
38	C	0.615827	0.3856	0.18979
39	C	0.603569	0.397707	0.306639
40	C	0.591225	0.409899	0.201934
41	C	0.577076	0.423874	0.277698
42	C	0.57327	0.427634	0.468447
43	C	0.558478	0.442242	0.495779
44	C	0.551114	0.449515	0.325819
45	C	0.53603	0.464414	0.307901
46	N	0.527946	0.472398	0.460639
47	C	0.513996	0.486176	0.408072
48	C	0.502503	0.497528	0.532332
49	C	0.488899	0.510963	0.460003
50	C	0.486405	0.513426	0.264019
51	C	0.497896	0.502076	0.139777
52	C	0.511499	0.488641	0.212085
53	S	0.527233	0.473101	0.093579
54	N	0.47246	0.527199	0.211564
55	C	0.464363	0.535197	0.363911
56	C	0.449245	0.550129	0.351947
57	C	0.439549	0.559705	0.498514
58	C	0.425441	0.57364	0.431096
59	C	0.424495	0.574573	0.233913
60	C	0.411972	0.586943	0.116697
61	C	0.411018	0.587885	0.918821
62	C	0.396912	0.601816	0.851072
63	C	0.387626	0.610988	0
64	S	0.395457	0.603253	0.216446
65	S	0.440936	0.558335	0.13457
66	S	0.47316	0.526509	0.578529
67	S	0.562397	0.438372	0.135858
68	S	0.594927	0.406244	0.960764
69	H	0.626451	0.375107	0.243749
70	H	0.603939	0.397341	0.461273
71	H	0.580675	0.42032	0.585567
72	H	0.553417	0.447241	0.634472
73	H	0.504353	0.495701	0.685469
74	H	0.496042	0.503907	0.986618
75	H	0.442252	0.557036	0.648841
76	H	0.416459	0.582511	0.525634
77	H	0.420013	0.579	0.824491
78	H	0.393945	0.604748	0.701763
79	C	0.610507	0.221834	0
80	C	0.613912	0.228656	0.18979
81	C	0.601826	0.204442	0.306639
82	C	0.589656	0.180058	0.201934
83	C	0.575705	0.152109	0.277698
84	C	0.571952	0.144589	0.468447
85	C	0.557368	0.115372	0.495779
86	C	0.550108	0.100826	0.325819
87	C	0.535236	0.071029	0.307901
88	N	0.527266	0.055061	0.460639
89	C	0.513511	0.027504	0.408072
90	C	0.502179	0.004801	0.532332
91	C	0.488767	0.97793	0.460003
92	C	0.486308	0.973003	0.264019
93	C	0.497638	0.995703	0.139777
94	C	0.51105	0.022573	0.212085
95	S	0.526563	0.053653	0.093579
96	N	0.472559	0.945458	0.211564
97	C	0.464575	0.929463	0.363911
98	C	0.44967	0.8996	0.351947
99	C	0.44011	0.880447	0.498514
100	C	0.426199	0.852578	0.431096
101	C	0.425267	0.850711	0.233913
102	C	0.412919	0.825972	0.116697
103	C	0.411979	0.824088	0.918821
104	C	0.398071	0.796225	0.851072
105	C	0.388915	0.777881	0
106	S	0.396637	0.793351	0.216446
107	S	0.441477	0.883186	0.13457
108	S	0.473248	0.946839	0.578529
109	S	0.561232	0.123112	0.135858
110	S	0.593304	0.18737	0.960764
111	H	0.624387	0.249642	0.243749
112	H	0.602192	0.205173	0.461273
113	H	0.579253	0.159217	0.585567
114	H	0.552378	0.105375	0.634472
115	H	0.504003	0.008456	0.685469
116	H	0.495811	0.992042	0.986618
117	H	0.442774	0.885785	0.648841
118	H	0.417343	0.834835	0.525634
119	H	0.420848	0.841857	0.824491
120	H	0.395145	0.790363	0.701763
121	C	0.776687	0.388726	0
122	C	0.769829	0.385315	0.18979
123	C	0.794173	0.397423	0.306639
124	C	0.818688	0.409614	0.201934
125	C	0.846787	0.423589	0.277698
126	C	0.854347	0.427348	0.468447
127	C	0.883722	0.441957	0.495779
128	C	0.898346	0.44923	0.325819
129	C	0.928303	0.464129	0.307901
130	N	0.944356	0.472112	0.460639
131	C	0.972062	0.485891	0.408072
132	C	0.994887	0.497242	0.532332
133	C	0.021902	0.510678	0.460003
134	C	0.026856	0.513142	0.264019
135	C	0.004034	0.501792	0.139777
136	C	0.977019	0.488357	0.212085
137	S	0.945772	0.472817	0.093579
138	N	0.054549	0.526914	0.211564
139	C	0.07063	0.534911	0.363911
140	C	0.100654	0.549843	0.351947
141	C	0.11991	0.559419	0.498514
142	C	0.147928	0.573354	0.431096
143	C	0.149806	0.574287	0.233913
144	C	0.174678	0.586657	0.116697
145	C	0.176572	0.587599	0.918821
146	C	0.204584	0.60153	0.851072
147	C	0.223027	0.610702	0
148	S	0.207474	0.602967	0.216446
149	S	0.117155	0.55805	0.13457
150	S	0.05316	0.526223	0.578529
151	S	0.87594	0.438087	0.135858
152	S	0.811337	0.405958	0.960764
153	H	0.74873	0.374823	0.243749
154	H	0.793438	0.397058	0.461273
155	H	0.839641	0.420034	0.585567
156	H	0.893772	0.446956	0.634472
157	H	0.991212	0.495415	0.685469
158	H	0.007715	0.503623	0.986618
159	H	0.114543	0.55675	0.648841
160	H	0.165767	0.582225	0.525634
161	H	0.158707	0.578714	0.824491
162	H	0.210478	0.604461	0.701763
