data_C72H42N6O6S6_2023-05-21_11:15:45
#******************************************
#
# CIF file created by Zeo++
# Zeo++ is an open source package to
# analyze microporous materials
#
#*******************************************

_cell_length_a		39.0176   
_cell_length_b		39.3162   
_cell_length_c		7   
_cell_angle_alpha		90   
_cell_angle_beta		90   
_cell_angle_gamma		119.668   

_symmetry_space_group_name_H-M		'P1'
_symmetry_Int_Tables_number		1
_symmetry_cell_setting		Monoclinic

loop_
_symmetry_equiv_pos_as_xyz
'+x,+y,+z'

loop_
_atom_site_label
_atom_site_type_symbol
_atom_site_fract_x
_atom_site_fract_y
_atom_site_fract_z
1	C	0.373044	0.67495	0.999995
2	O	0.407861	0.681041	0.999991
3	C	0.341629	0.634246	0.999998
4	C	0.347793	0.604244	0
5	N	0.386766	0.61126	0
6	C	0.301365	0.627022	3e-06
7	O	0.273129	0.591939	5e-06
8	C	0.291637	0.658325	6e-06
9	C	0.254585	0.650771	5e-06
10	N	0.224018	0.610856	0
11	C	0.324567	0.698703	4e-06
12	O	0.316832	0.725773	7e-06
13	C	0.365476	0.707742	0.999999
14	C	0.394504	0.744578	0.999998
15	N	0.388603	0.777277	0
16	H	0.323741	0.575037	1e-06
17	H	0.246729	0.673193	8e-06
18	H	0.423916	0.749838	0.999997
19	C	0.626956	0.32505	0.999995
20	O	0.592139	0.318959	0.999991
21	C	0.658371	0.365754	0.999998
22	C	0.652207	0.395756	0
23	N	0.613234	0.38874	0
24	C	0.698635	0.372978	3e-06
25	O	0.726871	0.408061	5e-06
26	C	0.708363	0.341675	6e-06
27	C	0.745415	0.349229	5e-06
28	N	0.775982	0.389144	0
29	C	0.675433	0.301297	4e-06
30	O	0.683168	0.274227	7e-06
31	C	0.634524	0.292258	0.999999
32	C	0.605496	0.255422	0.999998
33	N	0.611397	0.222723	0
34	H	0.676259	0.424963	1e-06
35	H	0.753271	0.326807	8e-06
36	H	0.576084	0.250162	0.999997
37	C	0.589401	0.412158	0
38	C	0.587764	0.430199	0.16484
39	C	0.553664	0.434897	0.168752
40	C	0.544352	0.452447	0.325015
41	C	0.526478	0.474196	0.323172
42	C	0.513194	0.487154	0.156549
43	C	0.539519	0.509888	0.012752
44	C	0.52634	0.522397	0.856414
45	C	0.486804	0.512844	0.843452
46	C	0.473521	0.525802	0.676828
47	C	0.455647	0.547552	0.674985
48	C	0.446335	0.565102	0.831248
49	C	0.469354	0.580928	0.992116
50	S	0.4492	0.599807	0.14829
51	C	0.410599	0.587842	0
52	C	0.412236	0.569801	0.835161
53	C	0.46048	0.49011	0.987249
54	C	0.473659	0.477601	0.143586
55	C	0.530645	0.419071	0.007884
56	S	0.5508	0.400193	0.851709
57	H	0.609883	0.439872	0.276289
58	H	0.553352	0.447578	0.465151
59	H	0.521285	0.48435	0.45911
60	H	0.570466	0.517931	0.020942
61	H	0.54729	0.539871	0.745896
62	H	0.478713	0.515648	0.540891
63	H	0.446646	0.552421	0.53485
64	H	0.497117	0.582581	0.027653
65	H	0.390116	0.560127	0.723713
66	H	0.429533	0.482067	0.979059
67	H	0.452708	0.460128	0.254105
68	H	0.502883	0.417418	0.972347
69	C	0.587215	0.175483	0
70	C	0.569107	0.155943	0.16484
71	C	0.564615	0.117547	0.168752
72	C	0.547052	0.090903	0.325015
73	C	0.525327	0.05162	0.323172
74	C	0.512402	0.025609	0.156549
75	C	0.489395	0.029064	0.012752
76	C	0.47692	0.003603	0.856414
77	C	0.486777	0.973987	0.843452
78	C	0.473852	0.947977	0.676828
79	C	0.452128	0.908693	0.674985
80	C	0.434564	0.882049	0.831248
81	C	0.418516	0.889097	0.992116
82	S	0.39969	0.850409	0.14829
83	C	0.411963	0.824113	0
84	C	0.430072	0.843653	0.835161
85	C	0.509785	0.970532	0.987249
86	C	0.52226	0.995993	0.143586
87	C	0.580663	0.1105	0.007884
88	S	0.599488	0.149187	0.851709
89	H	0.559244	0.168212	0.276289
90	H	0.551882	0.104643	0.465151
91	H	0.515165	0.036397	0.45911
92	H	0.481111	0.051685	0.020942
93	H	0.459231	0.006968	0.745896
94	H	0.484015	0.963199	0.540891
95	H	0.447297	0.894953	0.53485
96	H	0.416671	0.914915	0.027653
97	H	0.439935	0.831384	0.723713
98	H	0.518069	0.947911	0.979059
99	H	0.539949	0.992628	0.254105
100	H	0.582508	0.084681	0.972347
101	C	0.822772	0.411753	0
102	C	0.842517	0.413252	0.16484
103	C	0.881108	0.446949	0.168752
104	C	0.907984	0.456043	0.325015
105	C	0.947582	0.473577	0.323172
106	C	0.973791	0.48663	0.156549
107	C	0.970474	0.460441	0.012752
108	C	0.996128	0.473393	0.856414
109	C	0.025806	0.512562	0.843452
110	C	0.052015	0.525615	0.676828
111	C	0.091612	0.543148	0.674985
112	C	0.118489	0.552242	0.831248
113	C	0.111517	0.529368	0.992116
114	S	0.150497	0.549177	0.14829
115	C	0.176825	0.587438	0
116	C	0.15708	0.585939	0.835161
117	C	0.029123	0.538751	0.987249
118	C	0.003468	0.525799	0.143586
119	C	0.888079	0.469823	0.007884
120	S	0.849099	0.450013	0.851709
121	H	0.83026	0.391309	0.276289
122	H	0.894153	0.447173	0.465151
123	H	0.962937	0.478646	0.45911
124	H	0.947811	0.429777	0.020942
125	H	0.992866	0.452554	0.745896
126	H	0.036659	0.520546	0.540891
127	H	0.105443	0.552019	0.53485
128	H	0.0856	0.501897	0.027653
129	H	0.169336	0.607882	0.723713
130	H	0.051785	0.569415	0.979059
131	H	0.006731	0.546638	0.254105
132	H	0.913996	0.497294	0.972347
