data_C78H36N6O6S15_2023-05-14_06:39:06
#******************************************
#
# CIF file created by Zeo++
# Zeo++ is an open source package to
# analyze microporous materials
#
#*******************************************

_cell_length_a		46.256   
_cell_length_b		46.5545   
_cell_length_c		7   
_cell_angle_alpha		90   
_cell_angle_beta		90   
_cell_angle_gamma		119.72   

_symmetry_space_group_name_H-M		'P1'
_symmetry_Int_Tables_number		1
_symmetry_cell_setting		Monoclinic

loop_
_symmetry_equiv_pos_as_xyz
'+x,+y,+z'

loop_
_atom_site_label
_atom_site_type_symbol
_atom_site_fract_x
_atom_site_fract_y
_atom_site_fract_z
1	C	0.366837	0.673666	0.999995
2	O	0.396211	0.678812	0.999991
3	C	0.340302	0.639273	0.999998
4	C	0.345475	0.613923	0
5	N	0.378356	0.619851	0
6	C	0.306332	0.633169	3e-06
7	O	0.282485	0.603526	5e-06
8	C	0.298154	0.659618	6e-06
9	C	0.266894	0.653236	5e-06
10	N	0.241075	0.619509	0
11	C	0.325967	0.693736	4e-06
12	O	0.319466	0.716609	7e-06
13	C	0.360483	0.701373	0.999999
14	C	0.385	0.732499	0.999998
15	N	0.380052	0.760128	0
16	H	0.325161	0.589244	1e-06
17	H	0.260288	0.672181	8e-06
18	H	0.409815	0.736943	0.999997
19	C	0.633163	0.326334	0.999995
20	O	0.603789	0.321188	0.999991
21	C	0.659698	0.360727	0.999998
22	C	0.654525	0.386077	0
23	N	0.621644	0.380149	0
24	C	0.693668	0.366831	3e-06
25	O	0.717515	0.396474	5e-06
26	C	0.701846	0.340382	6e-06
27	C	0.733106	0.346764	5e-06
28	N	0.758925	0.380491	0
29	C	0.674033	0.306264	4e-06
30	O	0.680534	0.283391	7e-06
31	C	0.639517	0.298627	0.999999
32	C	0.615	0.267501	0.999998
33	N	0.619948	0.239872	0
34	H	0.674839	0.410756	1e-06
35	H	0.739712	0.327819	8e-06
36	H	0.590185	0.263057	0.999997
37	C	0.601561	0.399936	0
38	C	0.583599	0.415192	0.045851
39	C	0.583461	0.420096	0.247423
40	C	0.565277	0.436874	0.350096
41	C	0.565218	0.441557	0.544484
42	C	0.546623	0.457426	0.595428
43	C	0.533159	0.464285	0.438101
44	C	0.511331	0.481653	0.445187
45	C	0.503428	0.491836	0.611956
46	S	0.479476	0.509765	0.572271
47	C	0.479247	0.504332	0.32935
48	C	0.461871	0.514506	0.197447
49	C	0.45209	0.503035	0.013025
50	C	0.435661	0.51819	0.919055
51	C	0.433376	0.540981	0.033925
52	C	0.416702	0.562056	0.973668
53	C	0.402513	0.559654	0.796629
54	S	0.386489	0.585765	0.774914
55	C	0.398439	0.600064	0
56	C	0.41427	0.585755	0.092482
57	S	0.450946	0.543835	0.252278
58	C	0.497311	0.488858	0.282791
59	S	0.543022	0.45158	0.231547
60	C	0.601416	0.408242	0.344054
61	S	0.618179	0.391412	0.192475
62	H	0.571234	0.422452	0.940952
63	H	0.577724	0.434167	0.647626
64	H	0.543599	0.463292	0.741091
65	H	0.510334	0.489818	0.756697
66	H	0.456233	0.484343	0.946914
67	H	0.426188	0.512272	0.774552
68	H	0.400536	0.544033	0.67744
69	H	0.423607	0.59189	0.237233
70	H	0.500529	0.483095	0.137193
71	H	0.605783	0.408413	0.495789
72	C	0.599509	0.199957	0
73	C	0.584299	0.16699	0.045851
74	C	0.579378	0.161977	0.247423
75	C	0.562642	0.127277	0.350096
76	C	0.557942	0.122562	0.544484
77	C	0.542119	0.088358	0.595428
78	C	0.535311	0.068197	0.438101
79	C	0.518004	0.0293	0.445187
80	C	0.507828	0.011344	0.611956
81	S	0.489968	0.969784	0.572271
82	C	0.495423	0.974959	0.32935
83	C	0.48531	0.947627	0.197447
84	C	0.496877	0.949342	0.013025
85	C	0.48176	0.917994	0.919055
86	C	0.458899	0.893068	0.033925
87	C	0.437841	0.855591	0.973668
88	C	0.440331	0.84392	0.796629
89	S	0.414216	0.80208	0.774914
90	C	0.399798	0.799702	0
91	C	0.41407	0.829615	0.092482
92	S	0.455936	0.907638	0.252278
93	C	0.510852	0.008245	0.282791
94	S	0.548008	0.090603	0.231547
95	C	0.591174	0.191554	0.344054
96	S	0.607971	0.224899	0.192475
97	H	0.577082	0.14752	0.940952
98	H	0.565288	0.142301	0.647626
99	H	0.536249	0.079529	0.741091
100	H	0.509814	0.020192	0.756697
101	H	0.515614	0.972034	0.946914
102	H	0.487752	0.914493	0.774552
103	H	0.45602	0.857494	0.67744
104	H	0.407859	0.832766	0.237233
105	H	0.516617	0.017163	0.137193
106	H	0.590978	0.195712	0.495789
107	C	0.798413	0.399594	0
108	C	0.831585	0.417305	0.045851
109	C	0.836644	0.417414	0.247423
110	C	0.871564	0.435337	0.350096
111	C	0.876323	0.435369	0.544484
112	C	0.91074	0.453703	0.595428
113	C	0.931012	0.467005	0.438101
114	C	0.970148	0.488535	0.445187
115	C	0.988227	0.496307	0.611956
116	S	0.030038	0.519938	0.572271
117	C	0.024813	0.520196	0.32935
118	C	0.052303	0.537355	0.197447
119	C	0.050516	0.54711	0.013025
120	C	0.082062	0.563303	0.919055
121	C	0.107208	0.565438	0.033925
122	C	0.14494	0.581841	0.973668
123	C	0.156639	0.595913	0.796629
124	S	0.198778	0.611642	0.774914
125	C	0.201246	0.599722	0
126	C	0.171143	0.584117	0.092482
127	S	0.092602	0.548015	0.252278
128	C	0.99132	0.502385	0.282791
129	S	0.908453	0.457304	0.231547
130	C	0.806893	0.399692	0.344054
131	S	0.773333	0.383177	0.192475
132	H	0.851166	0.429515	0.940952
133	H	0.856471	0.423019	0.647626
134	H	0.919635	0.456666	0.741091
135	H	0.979335	0.489477	0.756697
136	H	0.027636	0.543111	0.946914
137	H	0.085543	0.572722	0.774552
138	H	0.142927	0.59796	0.67744
139	H	0.168016	0.574831	0.237233
140	H	0.982337	0.499229	0.137193
141	H	0.802721	0.395363	0.495789
