data_C78H36N12O6S6_2023-05-13_10:21:13
#******************************************
#
# CIF file created by Zeo++
# Zeo++ is an open source package to
# analyze microporous materials
#
#*******************************************

_cell_length_a		35.822   
_cell_length_b		36.1206   
_cell_length_c		7   
_cell_angle_alpha		90   
_cell_angle_beta		90   
_cell_angle_gamma		119.639   

_symmetry_space_group_name_H-M		'P1'
_symmetry_Int_Tables_number		1
_symmetry_cell_setting		Monoclinic

loop_
_symmetry_equiv_pos_as_xyz
'+x,+y,+z'

loop_
_atom_site_label
_atom_site_type_symbol
_atom_site_fract_x
_atom_site_fract_y
_atom_site_fract_z
1	C	0.376581	0.67568	0.999995
2	O	0.4145	0.682308	0.999991
3	C	0.34239	0.631389	0.999998
4	C	0.349123	0.598742	0
5	N	0.391568	0.606376	0
6	C	0.298538	0.623527	3e-06
7	O	0.267807	0.585352	5e-06
8	C	0.287922	0.65759	6e-06
9	C	0.24757	0.64937	5e-06
10	N	0.214302	0.605936	0
11	C	0.323764	0.701527	4e-06
12	O	0.315322	0.730984	7e-06
13	C	0.368317	0.711363	0.999999
14	C	0.39991	0.751447	0.999998
15	N	0.393462	0.787028	0
16	H	0.322944	0.56696	1e-06
17	H	0.238999	0.673768	8e-06
18	H	0.431943	0.75717	0.999997
19	C	0.623419	0.32432	0.999995
20	O	0.5855	0.317692	0.999991
21	C	0.65761	0.368611	0.999998
22	C	0.650877	0.401258	0
23	N	0.608432	0.393624	0
24	C	0.701462	0.376473	3e-06
25	O	0.732193	0.414648	5e-06
26	C	0.712078	0.34241	6e-06
27	C	0.75243	0.35063	5e-06
28	N	0.785698	0.394064	0
29	C	0.676236	0.298473	4e-06
30	O	0.684678	0.269016	7e-06
31	C	0.631683	0.288637	0.999999
32	C	0.60009	0.248553	0.999998
33	N	0.606538	0.212972	0
34	H	0.677056	0.43304	1e-06
35	H	0.761001	0.326232	8e-06
36	H	0.568057	0.24283	0.999997
37	C	0.417543	0.580894	0
38	C	0.38633	0.538802	0.994509
39	C	0.390474	0.51582	0.151348
40	C	0.424736	0.541529	0.268312
41	C	0.439493	0.530048	0.442139
42	C	0.467306	0.512512	0.436858
43	C	0.483375	0.505546	0.265551
44	C	0.510514	0.488371	0.267009
45	C	0.522635	0.477475	0.439828
46	C	0.550292	0.459784	0.44807
47	C	0.569015	0.45225	0.276376
48	C	0.605741	0.480413	0.178463
49	C	0.613539	0.461068	0.016903
50	C	0.582457	0.419106	0
51	S	0.544509	0.402704	0.173022
52	C	0.561036	0.449578	0.624071
53	C	0.544079	0.457104	0.785582
54	N	0.517886	0.473877	0.782277
55	C	0.506711	0.484234	0.613697
56	C	0.479221	0.501764	0.61224
57	N	0.464193	0.508286	0.779458
58	C	0.437956	0.525015	0.779996
59	C	0.424725	0.536249	0.61681
60	S	0.451346	0.593168	0.188303
61	H	0.361767	0.524933	0.885355
62	H	0.369399	0.482117	0.176912
63	H	0.475045	0.513515	0.127976
64	H	0.52199	0.483533	0.130456
65	H	0.626039	0.513344	0.220565
66	H	0.640464	0.477288	0.920182
67	H	0.582103	0.436091	0.635154
68	H	0.551197	0.449773	0.926831
69	H	0.427606	0.529129	0.920367
70	H	0.40343	0.549508	0.625607
71	C	0.418876	0.837992	0
72	C	0.461392	0.848936	0.994509
73	C	0.484452	0.875846	0.151348
74	C	0.458374	0.884179	0.268312
75	C	0.469802	0.91016	0.442139
76	C	0.487218	0.955052	0.436858
77	C	0.4941	0.977846	0.265551
78	C	0.51116	0.021715	0.267009
79	C	0.522019	0.044509	0.439828
80	C	0.539593	0.089401	0.44807
81	C	0.547027	0.115382	0.276376
82	C	0.518465	0.123714	0.178463
83	C	0.537844	0.150625	0.016903
84	C	0.580229	0.161568	0
85	S	0.596982	0.140352	0.173022
86	C	0.549769	0.11015	0.624071
87	C	0.542331	0.085923	0.785582
88	N	0.525669	0.043389	0.782277
89	C	0.515344	0.022064	0.613697
90	C	0.497931	0.977497	0.61224
91	N	0.491487	0.956172	0.779458
92	C	0.47487	0.913638	0.779996
93	C	0.463679	0.889411	0.61681
94	S	0.406299	0.85921	0.188303
95	H	0.475504	0.838432	0.885355
96	H	0.518467	0.888479	0.176912
97	H	0.486155	0.961704	0.127976
98	H	0.515937	0.037857	0.130456
99	H	0.485231	0.111079	0.220565
100	H	0.521352	0.161127	0.920182
101	H	0.563166	0.144356	0.635154
102	H	0.549644	0.100234	0.926831
103	H	0.470812	0.899327	0.920367
104	H	0.450511	0.855204	0.625607
105	C	0.162914	0.580454	0
106	C	0.151611	0.611602	0.994509
107	C	0.124407	0.607674	0.151348
108	C	0.116224	0.573632	0.268312
109	C	0.090038	0.559132	0.442139
110	C	0.044809	0.531776	0.436858
111	C	0.021857	0.515947	0.265551
112	C	0.977659	0.489254	0.267009
113	C	0.954679	0.477356	0.439828
114	C	0.909448	0.450155	0.44807
115	C	0.883292	0.431709	0.276376
116	C	0.875127	0.395213	0.178463
117	C	0.847949	0.387647	0.016903
118	C	0.836647	0.418666	0
119	S	0.857842	0.456283	0.173022
120	C	0.888528	0.439612	0.624071
121	C	0.912923	0.456313	0.785582
122	N	0.955778	0.482075	0.782277
123	C	0.977278	0.493042	0.613697
124	C	0.022181	0.520079	0.61224
125	N	0.043652	0.534882	0.779458
126	C	0.086507	0.560687	0.779996
127	C	0.110929	0.573681	0.61681
128	S	0.141688	0.546962	0.188303
129	H	0.162061	0.635975	0.885355
130	H	0.111468	0.628744	0.176912
131	H	0.038133	0.524121	0.127976
132	H	0.961406	0.47795	0.130456
133	H	0.888062	0.374917	0.220565
134	H	0.837517	0.360924	0.920182
135	H	0.854064	0.418892	0.635154
136	H	0.898491	0.449333	0.926831
137	H	0.100915	0.570885	0.920367
138	H	0.145392	0.594627	0.625607
