data_C54H24N6O6S9_2023-05-21_17:56:48
#******************************************
#
# CIF file created by Zeo++
# Zeo++ is an open source package to
# analyze microporous materials
#
#*******************************************

_cell_length_a		33.2995   
_cell_length_b		33.5982   
_cell_length_c		7   
_cell_angle_alpha		90   
_cell_angle_beta		90   
_cell_angle_gamma		119.612   

_symmetry_space_group_name_H-M		'P1'
_symmetry_Int_Tables_number		1
_symmetry_cell_setting		Monoclinic

loop_
_symmetry_equiv_pos_as_xyz
'+x,+y,+z'

loop_
_atom_site_label
_atom_site_type_symbol
_atom_site_fract_x
_atom_site_fract_y
_atom_site_fract_z
1	C	0.379851	0.676354	0.999995
2	O	0.420639	0.683478	0.999991
3	C	0.343097	0.62875	0.999998
4	C	0.350359	0.593662	0
5	N	0.396015	0.601867	0
6	C	0.295928	0.620301	3e-06
7	O	0.262891	0.579271	5e-06
8	C	0.284488	0.656911	6e-06
9	C	0.241084	0.648076	5e-06
10	N	0.205321	0.601394	0
11	C	0.323018	0.704135	4e-06
12	O	0.313919	0.735794	7e-06
13	C	0.370941	0.714706	0.999999
14	C	0.404903	0.757787	0.999998
15	N	0.397946	0.79603	0
16	H	0.322216	0.559503	1e-06
17	H	0.231849	0.674299	8e-06
18	H	0.439359	0.763939	0.999997
19	C	0.620149	0.323646	0.999995
20	O	0.579361	0.316522	0.999991
21	C	0.656903	0.37125	0.999998
22	C	0.649641	0.406338	0
23	N	0.603985	0.398133	0
24	C	0.704072	0.379699	3e-06
25	O	0.737109	0.420729	5e-06
26	C	0.715512	0.343089	6e-06
27	C	0.758916	0.351924	5e-06
28	N	0.794679	0.398606	0
29	C	0.676982	0.295865	4e-06
30	O	0.686081	0.264206	7e-06
31	C	0.629059	0.285294	0.999999
32	C	0.595097	0.242213	0.999998
33	N	0.602054	0.20397	0
34	H	0.677784	0.440497	1e-06
35	H	0.768151	0.325701	8e-06
36	H	0.560641	0.236061	0.999997
37	C	0.423973	0.574479	0
38	C	0.411565	0.586634	0.167595
39	S	0.429868	0.568704	0.360921
40	C	0.454241	0.544828	0.218909
41	C	0.480065	0.519529	0.297641
42	C	0.485377	0.514326	0.489295
43	S	0.514796	0.485505	0.529226
44	C	0.521187	0.479245	0.28911
45	C	0.544891	0.456023	0.214821
46	C	0.551437	0.44961	0.023967
47	C	0.576027	0.425521	0
48	C	0.588029	0.413764	0.169173
49	S	0.569325	0.432086	0.359286
50	C	0.500718	0.499296	0.182986
51	C	0.448524	0.550428	0.02734
52	H	0.392824	0.604993	0.187144
53	H	0.473564	0.525898	0.609821
54	H	0.539116	0.461681	0.906639
55	H	0.60672	0.395453	0.191589
56	H	0.500558	0.499453	0.028451
57	H	0.461199	0.538011	0.912661
58	C	0.425255	0.850805	0
59	C	0.413135	0.826495	0.167595
60	S	0.431013	0.862356	0.360921
61	C	0.45482	0.910109	0.218909
62	C	0.480046	0.960706	0.297641
63	C	0.485234	0.971113	0.489295
64	S	0.513971	0.028753	0.529226
65	C	0.520213	0.041274	0.28911
66	C	0.543367	0.087717	0.214821
67	C	0.549762	0.100543	0.023967
68	C	0.573782	0.148722	0
69	C	0.585505	0.172237	0.169173
70	S	0.567235	0.135591	0.359286
71	C	0.50022	0.001171	0.182986
72	C	0.449236	0.898908	0.02734
73	H	0.394829	0.789777	0.187144
74	H	0.473695	0.947968	0.609821
75	H	0.537727	0.076402	0.906639
76	H	0.603763	0.208858	0.191589
77	H	0.500063	0.000857	0.028451
78	H	0.461617	0.923741	0.912661
79	C	0.150055	0.574006	0
80	C	0.174583	0.586161	0.167595
81	S	0.138402	0.568231	0.360921
82	C	0.090221	0.544354	0.218909
83	C	0.039171	0.519055	0.297641
84	C	0.028672	0.513852	0.489295
85	S	0.970516	0.485032	0.529226
86	C	0.957882	0.478771	0.28911
87	C	0.911024	0.45555	0.214821
88	C	0.898084	0.449137	0.023967
89	C	0.849473	0.425047	0
90	C	0.825748	0.41329	0.169173
91	S	0.862722	0.431613	0.359286
92	C	0.998344	0.498823	0.182986
93	C	0.101523	0.549955	0.02734
94	H	0.211629	0.60452	0.187144
95	H	0.052023	0.525425	0.609821
96	H	0.92244	0.461207	0.906639
97	H	0.788799	0.394979	0.191589
98	H	0.998661	0.49898	0.028451
99	H	0.076467	0.537538	0.912661
