data_C105H54N6O6S18_2023-05-15_13:37:48
#******************************************
#
# CIF file created by Zeo++
# Zeo++ is an open source package to
# analyze microporous materials
#
#*******************************************

_cell_length_a		58.3053   
_cell_length_b		58.6037   
_cell_length_c		7   
_cell_angle_alpha		90   
_cell_angle_beta		90   
_cell_angle_gamma		119.778   

_symmetry_space_group_name_H-M		'P1'
_symmetry_Int_Tables_number		1
_symmetry_cell_setting		Monoclinic

loop_
_symmetry_equiv_pos_as_xyz
'+x,+y,+z'

loop_
_atom_site_label
_atom_site_type_symbol
_atom_site_fract_x
_atom_site_fract_y
_atom_site_fract_z
1	C	0.35992	0.67223	0.999995
2	O	0.383228	0.67632	0.999991
3	C	0.338837	0.644893	0.999998
4	C	0.342917	0.624743	0
5	N	0.369008	0.629455	0
6	C	0.311882	0.640041	3e-06
7	O	0.292935	0.616479	5e-06
8	C	0.305418	0.661064	6e-06
9	C	0.280612	0.655991	5e-06
10	N	0.260097	0.629183	0
11	C	0.327514	0.688183	4e-06
12	O	0.322379	0.706363	7e-06
13	C	0.354904	0.694253	0.999999
14	C	0.374384	0.718993	0.999998
15	N	0.370484	0.740954	0
16	H	0.326778	0.605127	1e-06
17	H	0.275388	0.67105	8e-06
18	H	0.394075	0.722526	0.999997
19	C	0.64008	0.32777	0.999995
20	O	0.616772	0.32368	0.999991
21	C	0.661163	0.355107	0.999998
22	C	0.657083	0.375257	0
23	N	0.630992	0.370545	0
24	C	0.688118	0.359959	3e-06
25	O	0.707065	0.383521	5e-06
26	C	0.694582	0.338936	6e-06
27	C	0.719388	0.344009	5e-06
28	N	0.739903	0.370817	0
29	C	0.672486	0.311817	4e-06
30	O	0.677621	0.293637	7e-06
31	C	0.645096	0.305747	0.999999
32	C	0.625616	0.281007	0.999998
33	N	0.629516	0.259046	0
34	H	0.673222	0.394873	1e-06
35	H	0.724612	0.32895	8e-06
36	H	0.605925	0.277474	0.999997
37	C	0.615077	0.386273	0
38	C	0.606557	0.394684	0.847388
39	S	0.590371	0.410688	0.921287
40	C	0.594735	0.406391	0.159743
41	C	0.585051	0.415975	0.313633
42	C	0.587738	0.413349	0.507433
43	C	0.576003	0.424953	0.622132
44	C	0.564418	0.436377	0.515331
45	C	0.550894	0.44974	0.588301
46	C	0.547073	0.453492	0.777995
47	C	0.532989	0.467416	0.802599
48	C	0.526021	0.474329	0.631927
49	C	0.512015	0.488182	0.597536
50	C	0.503039	0.497089	0.739812
51	C	0.489183	0.510785	0.660451
52	C	0.491509	0.508445	0.44721
53	C	0.482117	0.517708	0.294171
54	C	0.484006	0.515804	0.098398
55	C	0.471865	0.527793	0.992747
56	C	0.460715	0.538844	0.108032
57	C	0.446948	0.552451	0.045271
58	C	0.442458	0.556897	0.858545
59	C	0.428294	0.570892	0.8444
60	C	0.422043	0.57706	0.020424
61	C	0.407799	0.591133	0.055258
62	C	0.397819	0.600982	0.91825
63	C	0.384923	0.613727	0
64	C	0.385049	0.613616	0.195568
65	S	0.400959	0.597905	0.281325
66	S	0.433681	0.565549	0.199689
67	S	0.46536	0.534294	0.343996
68	C	0.504736	0.495352	0.417726
69	S	0.537122	0.463379	0.444026
70	S	0.568172	0.432635	0.276195
71	C	0.608471	0.392815	0.1788
72	H	0.608938	0.392318	0.696796
73	H	0.597682	0.403539	0.567153
74	H	0.576225	0.424756	0.776787
75	H	0.553982	0.446643	0.896491
76	H	0.52824	0.472091	0.941523
77	H	0.50505	0.495129	0.891277
78	H	0.499105	0.531364	0.706132
79	H	0.468507	0.500865	0.70633
80	H	0.493707	0.506195	0.031425
81	H	0.471513	0.528112	0.838165
82	H	0.448958	0.550482	0.735159
83	H	0.423063	0.576069	0.709211
84	H	0.3997	0.599113	0.765993
85	H	0.376689	0.621881	0.292689
86	H	0.50968	0.490434	0.28092
87	H	0.61355	0.387804	0.315195
88	C	0.613265	0.227319	0
89	C	0.604868	0.210487	0.847388
90	S	0.58889	0.178487	0.921287
91	C	0.59318	0.187097	0.159743
92	C	0.583612	0.167942	0.313633
93	C	0.586233	0.173224	0.507433
94	C	0.574649	0.150023	0.622132
95	C	0.563243	0.127149	0.515331
96	C	0.549903	0.100422	0.588301
97	C	0.546156	0.092893	0.777995
98	C	0.532256	0.06505	0.802599
99	C	0.525354	0.051252	0.631927
100	C	0.511523	0.023556	0.597536
101	C	0.502631	0.005779	0.739812
102	C	0.488958	0.97839	0.660451
103	C	0.491294	0.983028	0.44721
104	C	0.482047	0.964483	0.294171
105	C	0.483948	0.968254	0.098398
106	C	0.471978	0.944266	0.992747
107	C	0.460946	0.922196	0.108032
108	C	0.447361	0.894983	0.045271
109	C	0.442922	0.8861	0.858545
110	C	0.42895	0.858107	0.8444
111	C	0.422793	0.845762	0.020424
112	C	0.408743	0.817612	0.055258
113	C	0.39891	0.797899	0.91825
114	C	0.386186	0.77241	0
115	C	0.386297	0.772645	0.195568
116	S	0.401982	0.80408	0.281325
117	S	0.434284	0.868774	0.199689
118	S	0.465487	0.931337	0.343996
119	C	0.504365	0.009193	0.417726
120	S	0.536286	0.073172	0.444026
121	S	0.566979	0.134602	0.276195
122	C	0.606734	0.214248	0.1788
123	H	0.60723	0.215206	0.696796
124	H	0.596027	0.192861	0.567153
125	H	0.574845	0.150439	0.776787
126	H	0.552994	0.10657	0.896491
127	H	0.527588	0.055682	0.941523
128	H	0.504588	0.009726	0.891277
129	H	0.468275	0.967753	0.706132
130	H	0.498999	0.96774	0.70633
131	H	0.493541	0.98745	0.031425
132	H	0.47166	0.9436	0.838165
133	H	0.449327	0.89894	0.735159
134	H	0.423782	0.847761	0.709211
135	H	0.400776	0.801628	0.765993
136	H	0.378045	0.756119	0.292689
137	H	0.509275	0.018996	0.28092
138	H	0.611736	0.224279	0.315195
139	C	0.771247	0.386001	0
140	C	0.788165	0.394422	0.847388
141	S	0.820329	0.410418	0.921287
142	C	0.811675	0.406105	0.159743
143	C	0.830928	0.415675	0.313633
144	C	0.825619	0.413019	0.507433
145	C	0.848938	0.424617	0.622132
146	C	0.871929	0.436066	0.515331
147	C	0.898793	0.449431	0.588301
148	C	0.906361	0.453207	0.777995
149	C	0.934345	0.467126	0.802599
150	C	0.948214	0.474012	0.631927
151	C	0.976052	0.487854	0.597536
152	C	0.99392	0.496724	0.739812
153	C	0.021449	0.510418	0.660451
154	C	0.016787	0.508119	0.44721
155	C	0.035426	0.517401	0.294171
156	C	0.031636	0.515535	0.098398
157	C	0.055747	0.527533	0.992747
158	C	0.077929	0.538552	0.108032
159	C	0.105281	0.552158	0.045271
160	C	0.11421	0.556595	0.858545
161	C	0.142346	0.570593	0.8444
162	C	0.154754	0.576771	0.020424
163	C	0.183048	0.590848	0.055258
164	C	0.202861	0.600711	0.91825
165	C	0.228481	0.613455	0
166	C	0.228245	0.613331	0.195568
167	S	0.196649	0.597607	0.281325
168	S	0.131624	0.565269	0.199689
169	S	0.068742	0.533962	0.343996
170	C	0.990488	0.495048	0.417726
171	S	0.926182	0.463042	0.444026
172	S	0.864439	0.432356	0.276195
173	C	0.784385	0.392529	0.1788
174	H	0.783422	0.392068	0.696796
175	H	0.805881	0.403192	0.567153
176	H	0.84852	0.424397	0.776787
177	H	0.892614	0.44638	0.896491
178	H	0.943761	0.471819	0.941523
179	H	0.989952	0.494737	0.891277
180	H	0.032209	0.500476	0.706132
181	H	0.032084	0.530987	0.70633
182	H	0.012342	0.505948	0.031425
183	H	0.056416	0.527881	0.838165
184	H	0.101305	0.550171	0.735159
185	H	0.152745	0.575762	0.709211
186	H	0.199113	0.598851	0.765993
187	H	0.244855	0.621592	0.292689
188	H	0.980635	0.490162	0.28092
189	H	0.774303	0.38751	0.315195
