data_C81H39N9O6S12_2023-05-15_05:25:29
#******************************************
#
# CIF file created by Zeo++
# Zeo++ is an open source package to
# analyze microporous materials
#
#*******************************************

_cell_length_a		49.6053   
_cell_length_b		49.9038   
_cell_length_c		7   
_cell_angle_alpha		90   
_cell_angle_beta		90   
_cell_angle_gamma		119.739   

_symmetry_space_group_name_H-M		'P1'
_symmetry_Int_Tables_number		1
_symmetry_cell_setting		Monoclinic

loop_
_symmetry_equiv_pos_as_xyz
'+x,+y,+z'

loop_
_atom_site_label
_atom_site_type_symbol
_atom_site_fract_x
_atom_site_fract_y
_atom_site_fract_z
1	C	0.364577	0.673197	0.999995
2	O	0.39197	0.677999	0.999991
3	C	0.339822	0.641107	0.999998
4	C	0.344637	0.617453	0
5	N	0.375299	0.622985	0
6	C	0.308144	0.635411	3e-06
7	O	0.285896	0.607752	5e-06
8	C	0.300527	0.66009	6e-06
9	C	0.271375	0.654135	5e-06
10	N	0.247288	0.622666	0
11	C	0.326474	0.691924	4e-06
12	O	0.320421	0.713266	7e-06
13	C	0.358662	0.69905	0.999999
14	C	0.381535	0.728092	0.999998
15	N	0.376931	0.753871	0
16	H	0.325685	0.594427	1e-06
17	H	0.265222	0.671812	8e-06
18	H	0.404676	0.732239	0.999997
19	C	0.635423	0.326803	0.999995
20	O	0.60803	0.322001	0.999991
21	C	0.660178	0.358893	0.999998
22	C	0.655363	0.382547	0
23	N	0.624701	0.377015	0
24	C	0.691856	0.364589	3e-06
25	O	0.714104	0.392248	5e-06
26	C	0.699473	0.33991	6e-06
27	C	0.728625	0.345865	5e-06
28	N	0.752712	0.377334	0
29	C	0.673526	0.308076	4e-06
30	O	0.679579	0.286734	7e-06
31	C	0.641338	0.30095	0.999999
32	C	0.618465	0.271908	0.999998
33	N	0.623069	0.246129	0
34	H	0.674315	0.405573	1e-06
35	H	0.734778	0.328188	8e-06
36	H	0.595324	0.267761	0.999997
37	C	0.605981	0.395478	0
38	C	0.599736	0.401638	0.180077
39	C	0.583031	0.418113	0.17317
40	C	0.577153	0.423909	0.988301
41	C	0.560922	0.439916	0.927656
42	C	0.55508	0.445676	0.74364
43	C	0.538388	0.462139	0.737276
44	C	0.53151	0.468923	0.916386
45	C	0.514701	0.4855	0.967251
46	C	0.509186	0.490941	0.15475
47	N	0.493858	0.506058	0.206857
48	C	0.48297	0.516795	0.06638
49	C	0.466711	0.53283	0.136597
50	C	0.46162	0.537852	0.324262
51	C	0.445003	0.55424	0.341451
52	C	0.437468	0.561672	0.166595
53	C	0.420684	0.578225	0.134482
54	C	0.409076	0.589675	0.27324
55	C	0.393624	0.604914	0.195495
56	C	0.394019	0.604522	0
57	S	0.412358	0.586434	0.910009
58	S	0.450964	0.548361	0.984869
59	C	0.487221	0.5126	0.874817
60	C	0.503108	0.496932	0.826075
61	S	0.545823	0.454806	0.089033
62	S	0.592314	0.408955	0.82557
63	H	0.606571	0.394898	0.310344
64	H	0.575762	0.425283	0.299992
65	H	0.562323	0.438533	0.616607
66	H	0.531902	0.468534	0.604411
67	H	0.517055	0.483182	0.276646
68	H	0.469603	0.529979	0.444672
69	H	0.439019	0.560142	0.477757
70	H	0.41143	0.587355	0.42527
71	H	0.382994	0.615399	0.279663
72	H	0.478565	0.521135	0.761521
73	H	0.506103	0.493976	0.675268
74	C	0.603997	0.208885	0
75	C	0.597848	0.196566	0.180077
76	C	0.581405	0.163616	0.17317
77	C	0.575621	0.152023	0.988301
78	C	0.559645	0.120009	0.927656
79	C	0.553895	0.108487	0.74364
80	C	0.537465	0.075561	0.737276
81	C	0.530694	0.061994	0.916386
82	C	0.514149	0.028839	0.967251
83	C	0.508718	0.017959	0.15475
84	N	0.493631	0.987725	0.206857
85	C	0.482915	0.96625	0.06638
86	C	0.466911	0.93418	0.136597
87	C	0.461899	0.924137	0.324262
88	C	0.445543	0.891361	0.341451
89	C	0.438125	0.876497	0.166595
90	C	0.421604	0.843391	0.134482
91	C	0.410176	0.820493	0.27324
92	C	0.394967	0.790015	0.195495
93	C	0.395358	0.790796	0
94	S	0.41341	0.826971	0.910009
95	S	0.45141	0.903118	0.984869
96	C	0.487102	0.974638	0.874817
97	C	0.502739	0.005974	0.826075
98	S	0.544783	0.090227	0.089033
99	S	0.590546	0.18193	0.82557
100	H	0.604575	0.210047	0.310344
101	H	0.574249	0.149277	0.299992
102	H	0.561025	0.122774	0.616607
103	H	0.531082	0.06277	0.604411
104	H	0.516463	0.03348	0.276646
105	H	0.469756	0.939882	0.444672
106	H	0.439651	0.879556	0.477757
107	H	0.412492	0.825135	0.42527
108	H	0.384502	0.769046	0.279663
109	H	0.478583	0.957566	0.761521
110	H	0.505689	0.011884	0.675268
111	C	0.789541	0.395159	0
112	C	0.801934	0.401318	0.180077
113	C	0.835082	0.417793	0.17317
114	C	0.846745	0.42359	0.988301
115	C	0.878951	0.439597	0.927656
116	C	0.890542	0.445359	0.74364
117	C	0.923665	0.461821	0.737276
118	C	0.937314	0.468605	0.916386
119	C	0.970668	0.485182	0.967251
120	C	0.981614	0.490622	0.15475
121	N	0.012029	0.505739	0.206857
122	C	0.033633	0.516477	0.06638
123	C	0.065896	0.532512	0.136597
124	C	0.075999	0.537533	0.324262
125	C	0.108972	0.553921	0.341451
126	C	0.123925	0.561353	0.166595
127	C	0.15723	0.577905	0.134482
128	C	0.180266	0.589354	0.27324
129	C	0.210927	0.604593	0.195495
130	C	0.210141	0.604203	0
131	S	0.173749	0.586117	0.910009
132	S	0.097144	0.548042	0.984869
133	C	0.025195	0.512284	0.874817
134	C	0.993671	0.496616	0.826075
135	S	0.908912	0.454488	0.089033
136	S	0.816658	0.408637	0.82557
137	H	0.788371	0.394576	0.310344
138	H	0.849506	0.424961	0.299992
139	H	0.876169	0.438215	0.616607
140	H	0.936534	0.468218	0.604411
141	H	0.966	0.48286	0.276646
142	H	0.060159	0.52966	0.444672
143	H	0.120848	0.559823	0.477757
144	H	0.175596	0.587032	0.42527
145	H	0.232021	0.615076	0.279663
146	H	0.042369	0.520821	0.761521
147	H	0.987725	0.493661	0.675268
