data_C81H39N9O6S12_2023-05-13_05:09:31
#******************************************
#
# CIF file created by Zeo++
# Zeo++ is an open source package to
# analyze microporous materials
#
#*******************************************

_cell_length_a		48.6162   
_cell_length_b		48.9147   
_cell_length_c		7   
_cell_angle_alpha		90   
_cell_angle_beta		90   
_cell_angle_gamma		119.733   

_symmetry_space_group_name_H-M		'P1'
_symmetry_Int_Tables_number		1
_symmetry_cell_setting		Monoclinic

loop_
_symmetry_equiv_pos_as_xyz
'+x,+y,+z'

loop_
_atom_site_label
_atom_site_type_symbol
_atom_site_fract_x
_atom_site_fract_y
_atom_site_fract_z
1	C	0.365212	0.673329	0.999995
2	O	0.393162	0.678228	0.999991
3	C	0.339957	0.640591	0.999998
4	C	0.344872	0.616461	0
5	N	0.376158	0.622104	0
6	C	0.307635	0.634781	3e-06
7	O	0.284937	0.606564	5e-06
8	C	0.29986	0.659958	6e-06
9	C	0.270116	0.653882	5e-06
10	N	0.245542	0.621778	0
11	C	0.326331	0.692433	4e-06
12	O	0.320153	0.714206	7e-06
13	C	0.359174	0.699703	0.999999
14	C	0.382509	0.72933	0.999998
15	N	0.377808	0.75563	0
16	H	0.325538	0.59297	1e-06
17	H	0.263835	0.671915	8e-06
18	H	0.40612	0.733561	0.999997
19	C	0.634788	0.326671	0.999995
20	O	0.606838	0.321772	0.999991
21	C	0.660043	0.359409	0.999998
22	C	0.655128	0.383539	0
23	N	0.623842	0.377896	0
24	C	0.692365	0.365219	3e-06
25	O	0.715063	0.393436	5e-06
26	C	0.70014	0.340042	6e-06
27	C	0.729884	0.346118	5e-06
28	N	0.754458	0.378222	0
29	C	0.673669	0.307567	4e-06
30	O	0.679847	0.285794	7e-06
31	C	0.640826	0.300297	0.999999
32	C	0.617491	0.27067	0.999998
33	N	0.622192	0.24437	0
34	H	0.674462	0.40703	1e-06
35	H	0.736165	0.328085	8e-06
36	H	0.59388	0.266439	0.999997
37	C	0.604739	0.396731	0
38	C	0.604492	0.396973	0.195557
39	S	0.585356	0.41584	0.279872
40	C	0.577259	0.423824	0.053169
41	C	0.560183	0.44066	0.017072
42	C	0.552773	0.447963	0.840673
43	C	0.535764	0.464733	0.853585
44	C	0.530205	0.470217	0.039889
45	C	0.51354	0.486648	0.110236
46	C	0.500669	0.499338	0.983961
47	N	0.485017	0.51477	0.034871
48	C	0.481468	0.51827	0.22324
49	C	0.464349	0.535149	0.273365
50	C	0.457168	0.542231	0.451466
51	C	0.440141	0.559019	0.442109
52	C	0.434394	0.564684	0.25699
53	C	0.4179	0.580947	0.193511
54	C	0.412168	0.586599	0.00759
55	C	0.395261	0.603269	0
56	C	0.388226	0.610205	0.176583
57	S	0.402243	0.596385	0.353866
58	S	0.449981	0.549316	0.097834
59	C	0.493407	0.5065	0.361136
60	C	0.509429	0.490703	0.303962
61	S	0.54612	0.454527	0.195014
62	C	0.589303	0.41195	0.917073
63	H	0.614481	0.387125	0.293397
64	H	0.55912	0.441704	0.705889
65	H	0.528128	0.47226	0.728724
66	H	0.502384	0.497646	0.830172
67	H	0.463677	0.535813	0.585069
68	H	0.432589	0.566465	0.567755
69	H	0.419793	0.579081	0.882567
70	H	0.375645	0.62261	0.211071
71	H	0.490636	0.509233	0.5124
72	H	0.518482	0.481778	0.415199
73	H	0.587121	0.414102	0.764634
74	C	0.602735	0.206375	0
75	C	0.602493	0.20589	0.195557
76	S	0.583664	0.168156	0.279872
77	C	0.575696	0.152188	0.053169
78	C	0.558893	0.118515	0.017072
79	C	0.551605	0.103907	0.840673
80	C	0.534867	0.070366	0.853585
81	C	0.529395	0.059401	0.039889
82	C	0.512996	0.026539	0.110236
83	C	0.500331	0.001159	0.983961
84	N	0.48493	0.970295	0.034871
85	C	0.481436	0.963295	0.22324
86	C	0.464591	0.929538	0.273365
87	C	0.457523	0.915376	0.451466
88	C	0.440769	0.8818	0.442109
89	C	0.435114	0.870468	0.25699
90	C	0.418884	0.837943	0.193511
91	C	0.413242	0.826638	0.00759
92	C	0.396606	0.7933	0
93	C	0.389684	0.779428	0.176583
94	S	0.403476	0.807068	0.353866
95	S	0.450452	0.901205	0.097834
96	C	0.493183	0.986837	0.361136
97	C	0.508949	0.018431	0.303962
98	S	0.545053	0.090783	0.195014
99	C	0.587546	0.175937	0.917073
100	H	0.612322	0.225586	0.293397
101	H	0.557851	0.116423	0.705889
102	H	0.527356	0.055311	0.728724
103	H	0.50202	0.004542	0.830172
104	H	0.463928	0.928211	0.585069
105	H	0.433337	0.866908	0.567755
106	H	0.420746	0.841675	0.882567
107	H	0.377303	0.754618	0.211071
108	H	0.490456	0.981373	0.5124
109	H	0.517856	0.036282	0.415199
110	H	0.585399	0.171634	0.764634
111	C	0.792034	0.396405	0
112	C	0.792523	0.396649	0.195557
113	S	0.830487	0.415516	0.279872
114	C	0.846553	0.4235	0.053169
115	C	0.880432	0.440337	0.017072
116	C	0.89513	0.447642	0.840673
117	C	0.928877	0.464413	0.853585
118	C	0.939909	0.469894	0.039889
119	C	0.972973	0.486325	0.110236
120	C	0.998508	0.499015	0.983961
121	N	0.029561	0.514447	0.034871
122	C	0.036604	0.517946	0.22324
123	C	0.070568	0.534825	0.273365
124	C	0.084817	0.541905	0.451466
125	C	0.118599	0.558693	0.442109
126	C	0.13	0.564359	0.25699
127	C	0.162724	0.580622	0.193511
128	C	0.174098	0.586274	0.00759
129	C	0.207641	0.602943	0
130	C	0.221598	0.609879	0.176583
131	S	0.193789	0.59606	0.353866
132	S	0.099075	0.548991	0.097834
133	C	0.012918	0.506175	0.361136
134	C	0.98113	0.490378	0.303962
135	S	0.908334	0.454201	0.195014
136	C	0.822659	0.411625	0.917073
137	H	0.772706	0.386801	0.293397
138	H	0.882538	0.441385	0.705889
139	H	0.944024	0.471941	0.728724
140	H	0.995104	0.497324	0.830172
141	H	0.071903	0.535488	0.585069
142	H	0.133581	0.566139	0.567755
143	H	0.15897	0.578756	0.882567
144	H	0.24656	0.622284	0.211071
145	H	0.018416	0.508907	0.5124
146	H	0.96317	0.481452	0.415199
147	H	0.826988	0.413776	0.764634
