data_C96H48N6O6S12_2023-05-14_22:47:04
#******************************************
#
# CIF file created by Zeo++
# Zeo++ is an open source package to
# analyze microporous materials
#
#*******************************************

_cell_length_a		47.6129   
_cell_length_b		47.9114   
_cell_length_c		7   
_cell_angle_alpha		90   
_cell_angle_beta		90   
_cell_angle_gamma		119.728   

_symmetry_space_group_name_H-M		'P1'
_symmetry_Int_Tables_number		1
_symmetry_cell_setting		Monoclinic

loop_
_symmetry_equiv_pos_as_xyz
'+x,+y,+z'

loop_
_atom_site_label
_atom_site_type_symbol
_atom_site_fract_x
_atom_site_fract_y
_atom_site_fract_z
1	C	0.365883	0.673468	0.999995
2	O	0.394421	0.678469	0.999991
3	C	0.3401	0.640047	0.999998
4	C	0.345121	0.615412	0
5	N	0.377065	0.621173	0
6	C	0.307097	0.634115	3e-06
7	O	0.283924	0.605309	5e-06
8	C	0.299156	0.659817	6e-06
9	C	0.268786	0.653615	5e-06
10	N	0.243697	0.620841	0
11	C	0.326181	0.692972	4e-06
12	O	0.319869	0.715198	7e-06
13	C	0.359715	0.700393	0.999999
14	C	0.383538	0.730639	0.999998
15	N	0.378735	0.757488	0
16	H	0.325382	0.591431	1e-06
17	H	0.26237	0.672025	8e-06
18	H	0.407646	0.734958	0.999997
19	C	0.634117	0.326532	0.999995
20	O	0.605579	0.321531	0.999991
21	C	0.6599	0.359953	0.999998
22	C	0.654879	0.384588	0
23	N	0.622935	0.378827	0
24	C	0.692903	0.365885	3e-06
25	O	0.716076	0.394691	5e-06
26	C	0.700844	0.340183	6e-06
27	C	0.731214	0.346385	5e-06
28	N	0.756303	0.379159	0
29	C	0.673819	0.307028	4e-06
30	O	0.680131	0.284802	7e-06
31	C	0.640285	0.299607	0.999999
32	C	0.616462	0.269361	0.999998
33	N	0.621265	0.242512	0
34	H	0.674618	0.408569	1e-06
35	H	0.73763	0.327975	8e-06
36	H	0.592354	0.265042	0.999997
37	C	0.396573	0.601945	0
38	C	0.394921	0.612988	0.177748
39	C	0.409777	0.602813	0.31771
40	C	0.422139	0.584397	0.241378
41	C	0.438208	0.570146	0.345236
42	C	0.4359	0.563703	0.539211
43	C	0.454938	0.549812	0.598423
44	C	0.471287	0.545843	0.447872
45	C	0.493184	0.532555	0.449682
46	C	0.526261	0.554215	0.475333
47	C	0.548325	0.543303	0.479959
48	C	0.537492	0.510594	0.459544
49	C	0.50437	0.487769	0.434116
50	C	0.492977	0.45425	0.412953
51	C	0.51482	0.440904	0.41904
52	C	0.526252	0.43226	0.575949
53	C	0.547138	0.420141	0.52337
54	C	0.551145	0.419704	0.327601
55	C	0.570508	0.408589	0.228815
56	C	0.581067	0.388436	0.301624
57	C	0.600115	0.382265	0.168878
58	C	0.603427	0.398055	0
59	S	0.584246	0.419754	0.99845
60	S	0.529153	0.434092	0.210719
61	C	0.459882	0.432582	0.388042
62	C	0.437829	0.443506	0.382954
63	C	0.448665	0.476216	0.40325
64	C	0.481778	0.499026	0.429118
65	S	0.463822	0.559225	0.238074
66	S	0.415306	0.57982	0.998828
67	H	0.383874	0.627559	0.207682
68	H	0.411356	0.608991	0.467728
69	H	0.421064	0.568504	0.635988
70	H	0.456425	0.542951	0.743946
71	H	0.534885	0.5798	0.490989
72	H	0.573954	0.560161	0.498726
73	H	0.555584	0.503006	0.462818
74	H	0.520043	0.434619	0.721699
75	H	0.558714	0.412221	0.626235
76	H	0.57532	0.378251	0.444003
77	H	0.610607	0.367162	0.19753
78	H	0.451256	0.407003	0.371936
79	H	0.41223	0.42668	0.362726
80	H	0.430621	0.483855	0.397601
81	C	0.397925	0.795944	0
82	C	0.386851	0.783324	0.177748
83	C	0.396981	0.808167	0.31771
84	C	0.415394	0.838734	0.241378
85	C	0.429608	0.868832	0.345236
86	C	0.436087	0.872952	0.539211
87	C	0.449923	0.905636	0.598423
88	C	0.453816	0.925785	0.447872
89	C	0.467031	0.960702	0.449682
90	C	0.445114	0.971942	0.475333
91	C	0.455944	0.004662	0.479959
92	C	0.488827	0.026455	0.459544
93	C	0.511913	0.016329	0.434116
94	C	0.545614	0.038374	0.412953
95	C	0.558887	0.073294	0.41904
96	C	0.567499	0.09322	0.575949
97	C	0.579547	0.125974	0.52337
98	C	0.579963	0.130379	0.327601
99	C	0.591012	0.160623	0.228815
100	C	0.611177	0.19113	0.301624
101	C	0.617266	0.216145	0.168878
102	C	0.601402	0.203724	0
103	S	0.579732	0.163134	0.99845
104	S	0.565644	0.094274	0.210719
105	C	0.567539	0.027124	0.388042
106	C	0.556697	0.994403	0.382954
107	C	0.523812	0.972612	0.40325
108	C	0.500741	0.982744	0.429118
109	S	0.440428	0.905078	0.238074
110	S	0.420025	0.836513	0.998828
111	H	0.372289	0.757884	0.207682
112	H	0.390773	0.803588	0.467728
113	H	0.43135	0.853474	0.635988
114	H	0.4568	0.913933	0.743946
115	H	0.419391	0.955044	0.490989
116	H	0.438886	0.013295	0.498726
117	H	0.496343	0.051932	0.462818
118	H	0.565166	0.084722	0.721699
119	H	0.587431	0.145322	0.626235
120	H	0.62143	0.195565	0.444003
121	H	0.632365	0.241564	0.19753
122	H	0.593256	0.044014	0.371936
123	H	0.573722	0.985767	0.362726
124	H	0.516245	0.947132	0.397601
125	C	0.205	0.601613	0
126	C	0.217725	0.603189	0.177748
127	C	0.192739	0.588522	0.31771
128	C	0.161964	0.576371	0.241378
129	C	0.131681	0.560523	0.345236
130	C	0.127511	0.562847	0.539211
131	C	0.094637	0.544054	0.598423
132	C	0.074395	0.527873	0.447872
133	C	0.039282	0.506244	0.449682
134	C	0.028123	0.473345	0.475333
135	C	0.995229	0.451537	0.479959
136	C	0.973179	0.462453	0.459544
137	C	0.983214	0.495404	0.434116
138	C	0.960907	0.506878	0.412953
139	C	0.925791	0.485304	0.41904
140	C	0.905747	0.474021	0.575949
141	C	0.872813	0.453388	0.52337
142	C	0.86839	0.449419	0.327601
143	C	0.837978	0.43029	0.228815
144	C	0.807254	0.419936	0.301624
145	C	0.782117	0.401092	0.168878
146	C	0.794668	0.397723	0
147	S	0.83552	0.416613	0.99845
148	S	0.904701	0.471136	0.210719
149	C	0.972077	0.539796	0.388042
150	C	0.004972	0.561592	0.382954
151	C	0.02702	0.550674	0.40325
152	C	0.016979	0.517732	0.429118
153	S	0.095248	0.535199	0.238074
154	S	0.164167	0.583169	0.998828
155	H	0.243335	0.614059	0.207682
156	H	0.197369	0.586924	0.467728
157	H	0.147084	0.577524	0.635988
158	H	0.086273	0.542618	0.743946
159	H	0.045222	0.464658	0.490989
160	H	0.986658	0.426046	0.498726
161	H	0.947571	0.444564	0.462818
162	H	0.914289	0.480161	0.721699
163	H	0.853353	0.441959	0.626235
164	H	0.802747	0.425686	0.444003
165	H	0.756526	0.390776	0.19753
166	H	0.954986	0.548485	0.371936
167	H	0.013546	0.587055	0.362726
168	H	0.052631	0.568515	0.397601
