data_C66H24N12O6S12_2023-05-15_12:12:36
#******************************************
#
# CIF file created by Zeo++
# Zeo++ is an open source package to
# analyze microporous materials
#
#*******************************************

_cell_length_a		43.0295   
_cell_length_b		43.3281   
_cell_length_c		7   
_cell_angle_alpha		90   
_cell_angle_beta		90   
_cell_angle_gamma		119.699   

_symmetry_space_group_name_H-M		'P1'
_symmetry_Int_Tables_number		1
_symmetry_cell_setting		Monoclinic

loop_
_symmetry_equiv_pos_as_xyz
'+x,+y,+z'

loop_
_atom_site_label
_atom_site_type_symbol
_atom_site_fract_x
_atom_site_fract_y
_atom_site_fract_z
1	C	0.369346	0.674185	0.999995
2	O	0.40092	0.679714	0.999991
3	C	0.340837	0.637239	0.999998
4	C	0.346409	0.610007	0
5	N	0.381753	0.616375	0
6	C	0.304323	0.630682	3e-06
7	O	0.278701	0.598838	5e-06
8	C	0.29552	0.659095	6e-06
9	C	0.261918	0.652238	5e-06
10	N	0.234179	0.616008	0
11	C	0.325402	0.695746	4e-06
12	O	0.318404	0.720317	7e-06
13	C	0.362503	0.70395	0.999999
14	C	0.388844	0.737386	0.999998
15	N	0.383513	0.767066	0
16	H	0.324583	0.583496	1e-06
17	H	0.254808	0.67259	8e-06
18	H	0.415518	0.74216	0.999997
19	C	0.630654	0.325815	0.999995
20	O	0.59908	0.320286	0.999991
21	C	0.659163	0.362761	0.999998
22	C	0.653591	0.389993	0
23	N	0.618247	0.383625	0
24	C	0.695677	0.369318	3e-06
25	O	0.721299	0.401162	5e-06
26	C	0.70448	0.340905	6e-06
27	C	0.738082	0.347762	5e-06
28	N	0.765821	0.383992	0
29	C	0.674598	0.304254	4e-06
30	O	0.681596	0.279683	7e-06
31	C	0.637497	0.29605	0.999999
32	C	0.611156	0.262614	0.999998
33	N	0.616487	0.232934	0
34	H	0.675417	0.416504	1e-06
35	H	0.745192	0.32741	8e-06
36	H	0.584482	0.25784	0.999997
37	C	0.596649	0.404881	0
38	C	0.596095	0.405424	0.804418
39	S	0.574334	0.42684	0.723269
40	C	0.565567	0.435469	0.951622
41	C	0.546255	0.454476	0.982595
42	N	0.53453	0.466014	0.841113
43	C	0.517083	0.483186	0.910934
44	C	0.501244	0.498773	0.801656
45	C	0.484407	0.515343	0.890771
46	C	0.482915	0.516813	0.089067
47	C	0.498754	0.501225	0.198345
48	C	0.515591	0.484655	0.10923
49	S	0.536837	0.463746	0.207383
50	N	0.465468	0.533984	0.158888
51	C	0.453744	0.545523	0.017406
52	C	0.434431	0.564529	0.048378
53	C	0.420678	0.578066	0.914019
54	C	0.403351	0.595119	0
55	C	0.403904	0.594575	0.195582
56	S	0.425664	0.573157	0.276731
57	S	0.463162	0.536253	0.792618
58	C	0.579322	0.421934	0.085981
59	H	0.607246	0.39445	0.704752
60	H	0.502299	0.497733	0.646833
61	H	0.497699	0.502265	0.353168
62	H	0.422925	0.575854	0.7611
63	H	0.392753	0.605549	0.295248
64	H	0.577075	0.424146	0.238901
65	C	0.594534	0.190055	0
66	C	0.593991	0.188966	0.804418
67	S	0.572623	0.146133	0.723269
68	C	0.564014	0.128877	0.951622
69	C	0.54505	0.090863	0.982595
70	N	0.533537	0.067786	0.841113
71	C	0.516404	0.033443	0.910934
72	C	0.500852	0.002268	0.801656
73	C	0.484318	0.969127	0.890771
74	C	0.482853	0.96619	0.089067
75	C	0.498405	0.997366	0.198345
76	C	0.514939	0.030506	0.10923
77	S	0.535801	0.072324	0.207383
78	N	0.465719	0.931847	0.158888
79	C	0.454207	0.90877	0.017406
80	C	0.435242	0.870757	0.048378
81	C	0.421736	0.843684	0.914019
82	C	0.404721	0.809578	0
83	C	0.405265	0.810667	0.195582
84	S	0.426634	0.8535	0.276731
85	S	0.463456	0.927309	0.792618
86	C	0.577519	0.155949	0.085981
87	H	0.604942	0.210915	0.704752
88	H	0.501889	0.004346	0.646833
89	H	0.497368	0.995287	0.353168
90	H	0.423943	0.848108	0.7611
91	H	0.394314	0.788718	0.295248
92	H	0.575312	0.151526	0.238901
93	C	0.808261	0.404513	0
94	C	0.809358	0.405059	0.804418
95	S	0.852487	0.426476	0.723269
96	C	0.869863	0.435103	0.951622
97	C	0.90814	0.45411	0.982595
98	N	0.931377	0.465649	0.841113
99	C	0.965957	0.48282	0.910934
100	C	0.997349	0.498409	0.801656
101	C	0.030719	0.514979	0.890771
102	C	0.033677	0.516447	0.089067
103	C	0.002285	0.500859	0.198345
104	C	0.968915	0.484289	0.10923
105	S	0.926807	0.463379	0.207383
106	N	0.068257	0.533618	0.158888
107	C	0.091494	0.545157	0.017406
108	C	0.12977	0.564163	0.048378
109	C	0.15703	0.577699	0.914019
110	C	0.191372	0.594752	0
111	C	0.190276	0.594208	0.195582
112	S	0.147146	0.572792	0.276731
113	S	0.072826	0.535888	0.792618
114	C	0.842603	0.421567	0.085981
115	H	0.787257	0.394084	0.704752
116	H	0.995256	0.49737	0.646833
117	H	0.004377	0.501897	0.353168
118	H	0.152576	0.575487	0.7611
119	H	0.212377	0.605182	0.295248
120	H	0.847057	0.423778	0.238901
