data_C84H42N6O6S12_2023-05-13_06:25:37
#******************************************
#
# CIF file created by Zeo++
# Zeo++ is an open source package to
# analyze microporous materials
#
#*******************************************

_cell_length_a		49.7339   
_cell_length_b		50.0323   
_cell_length_c		7   
_cell_angle_alpha		90   
_cell_angle_beta		90   
_cell_angle_gamma		119.739   

_symmetry_space_group_name_H-M		'P1'
_symmetry_Int_Tables_number		1
_symmetry_cell_setting		Monoclinic

loop_
_symmetry_equiv_pos_as_xyz
'+x,+y,+z'

loop_
_atom_site_label
_atom_site_type_symbol
_atom_site_fract_x
_atom_site_fract_y
_atom_site_fract_z
1	C	0.364497	0.67318	0.999995
2	O	0.391819	0.67797	0.999991
3	C	0.339805	0.641172	0.999998
4	C	0.344607	0.617579	0
5	N	0.37519	0.623097	0
6	C	0.308208	0.635491	3e-06
7	O	0.286017	0.607903	5e-06
8	C	0.300612	0.660107	6e-06
9	C	0.271535	0.654167	5e-06
10	N	0.247509	0.622778	0
11	C	0.326492	0.691859	4e-06
12	O	0.320455	0.713146	7e-06
13	C	0.358597	0.698967	0.999999
14	C	0.381411	0.727934	0.999998
15	N	0.376819	0.753648	0
16	H	0.325704	0.594612	1e-06
17	H	0.265398	0.671798	8e-06
18	H	0.404492	0.732071	0.999997
19	C	0.635503	0.32682	0.999995
20	O	0.608181	0.32203	0.999991
21	C	0.660195	0.358828	0.999998
22	C	0.655393	0.382421	0
23	N	0.62481	0.376903	0
24	C	0.691792	0.364509	3e-06
25	O	0.713983	0.392097	5e-06
26	C	0.699388	0.339893	6e-06
27	C	0.728465	0.345833	5e-06
28	N	0.752491	0.377222	0
29	C	0.673508	0.308141	4e-06
30	O	0.679545	0.286854	7e-06
31	C	0.641403	0.301033	0.999999
32	C	0.618589	0.272066	0.999998
33	N	0.623181	0.246352	0
34	H	0.674296	0.405388	1e-06
35	H	0.734602	0.328202	8e-06
36	H	0.595508	0.267929	0.999997
37	C	0.606138	0.395319	0
38	C	0.603762	0.397659	0.806595
39	S	0.584305	0.416848	0.753651
40	C	0.578939	0.422144	0.991272
41	C	0.562794	0.438068	0.054405
42	C	0.557551	0.443239	0.241072
43	C	0.540937	0.459626	0.255437
44	C	0.533492	0.466968	0.079812
45	C	0.516525	0.483702	0.037052
46	C	0.510579	0.489558	0.850494
47	C	0.494443	0.505472	0.8144
48	C	0.483475	0.516298	0.962948
49	C	0.466508	0.533031	0.920189
50	C	0.459062	0.540373	0.744563
51	C	0.442448	0.55676	0.758928
52	C	0.437206	0.561932	0.945595
53	C	0.421061	0.577856	0.008728
54	C	0.407906	0.590827	0.893128
55	C	0.393862	0.604681	0
56	C	0.396239	0.602342	0.193405
57	S	0.415697	0.583154	0.246349
58	S	0.452773	0.546578	0.099365
59	C	0.48942	0.510442	0.149507
60	C	0.505557	0.494527	0.1856
61	S	0.547227	0.453422	0.900635
62	C	0.592093	0.409173	0.106872
63	H	0.612365	0.389172	0.693639
64	H	0.565167	0.435728	0.364492
65	H	0.534891	0.465588	0.391211
66	H	0.518291	0.481945	0.727166
67	H	0.490766	0.509091	0.665812
68	H	0.465107	0.534411	0.608789
69	H	0.434832	0.564271	0.635509
70	H	0.408357	0.590378	0.738574
71	H	0.387637	0.61083	0.306361
72	H	0.481708	0.518054	0.272835
73	H	0.509234	0.490908	0.334188
74	H	0.591642	0.409621	0.261426
75	C	0.604157	0.209204	0
76	C	0.601821	0.204519	0.806595
77	S	0.582669	0.166141	0.753651
78	C	0.577383	0.155553	0.991272
79	C	0.56149	0.123705	0.054405
80	C	0.556329	0.113363	0.241072
81	C	0.539974	0.08059	0.255437
82	C	0.532646	0.065905	0.079812
83	C	0.515944	0.032437	0.037052
84	C	0.5101	0.020717	0.850494
85	C	0.494216	0.988888	0.8144
86	C	0.483412	0.967245	0.962948
87	C	0.466711	0.933777	0.920189
88	C	0.459383	0.919092	0.744563
89	C	0.443028	0.886319	0.758928
90	C	0.437866	0.875977	0.945595
91	C	0.421972	0.844129	0.008728
92	C	0.409027	0.818185	0.893128
93	C	0.395199	0.790478	0
94	C	0.397534	0.795163	0.193405
95	S	0.416685	0.833541	0.246349
96	S	0.45319	0.906684	0.099365
97	C	0.489256	0.978965	0.149507
98	C	0.50514	0.010794	0.1856
99	S	0.546166	0.092998	0.900635
100	C	0.59033	0.181498	0.106872
101	H	0.610292	0.221492	0.693639
102	H	0.563826	0.128386	0.364492
103	H	0.534024	0.068666	0.391211
104	H	0.517698	0.035936	0.727166
105	H	0.490604	0.981642	0.665812
106	H	0.465333	0.931016	0.608789
107	H	0.435531	0.871296	0.635509
108	H	0.409475	0.819078	0.738574
109	H	0.389062	0.77819	0.306361
110	H	0.481658	0.963746	0.272835
111	H	0.508752	0.01804	0.334188
112	H	0.589882	0.180604	0.261426
113	C	0.789224	0.395	0
114	C	0.793937	0.397344	0.806595
115	S	0.832545	0.416534	0.753651
116	C	0.843196	0.421826	0.991272
117	C	0.875235	0.437749	0.054405
118	C	0.885639	0.44292	0.241072
119	C	0.918608	0.459307	0.255437
120	C	0.933382	0.46665	0.079812
121	C	0.96705	0.483384	0.037052
122	C	0.97884	0.489248	0.850494
123	C	0.01086	0.505163	0.8144
124	C	0.032633	0.51598	0.962948
125	C	0.066301	0.532714	0.920189
126	C	0.081074	0.540058	0.744563
127	C	0.114044	0.556444	0.758928
128	C	0.124448	0.561614	0.945595
129	C	0.156486	0.577537	0.008728
130	C	0.182586	0.590512	0.893128
131	C	0.210458	0.604363	0
132	C	0.205746	0.602018	0.193405
133	S	0.167137	0.582828	0.246349
134	S	0.093556	0.546261	0.099365
135	C	0.020843	0.510116	0.149507
136	C	0.988822	0.494201	0.1856
137	S	0.906127	0.453103	0.900635
138	C	0.817096	0.408853	0.106872
139	H	0.776863	0.388859	0.693639
140	H	0.870526	0.435409	0.364492
141	H	0.930604	0.465269	0.391211
142	H	0.96353	0.481642	0.727166
143	H	0.018149	0.508789	0.665812
144	H	0.069079	0.534096	0.608789
145	H	0.129157	0.563956	0.635509
146	H	0.181687	0.590067	0.738574
147	H	0.22282	0.610503	0.306361
148	H	0.036152	0.517722	0.272835
149	H	0.981533	0.490575	0.334188
150	H	0.817996	0.409298	0.261426
