data_C78H39N9O6S12_2023-05-13_00:06:45
#******************************************
#
# CIF file created by Zeo++
# Zeo++ is an open source package to
# analyze microporous materials
#
#*******************************************

_cell_length_a		44.4515   
_cell_length_b		44.75   
_cell_length_c		7   
_cell_angle_alpha		90   
_cell_angle_beta		90   
_cell_angle_gamma		119.709   

_symmetry_space_group_name_H-M		'P1'
_symmetry_Int_Tables_number		1
_symmetry_cell_setting		Monoclinic

loop_
_symmetry_equiv_pos_as_xyz
'+x,+y,+z'

loop_
_atom_site_label
_atom_site_type_symbol
_atom_site_fract_x
_atom_site_fract_y
_atom_site_fract_z
1	C	0.368195	0.673947	0.999995
2	O	0.398761	0.6793	0.999991
3	C	0.340592	0.638172	0.999998
4	C	0.34598	0.611802	0
5	N	0.380195	0.617968	0
6	C	0.305244	0.631822	3e-06
7	O	0.280435	0.600987	5e-06
8	C	0.296728	0.659335	6e-06
9	C	0.2642	0.652695	5e-06
10	N	0.237341	0.617613	0
11	C	0.325661	0.694824	4e-06
12	O	0.318892	0.718617	7e-06
13	C	0.361577	0.702769	0.999999
14	C	0.387082	0.735145	0.999998
15	N	0.381926	0.763886	0
16	H	0.324848	0.586131	1e-06
17	H	0.257321	0.672402	8e-06
18	H	0.412903	0.739769	0.999997
19	C	0.631805	0.326053	0.999995
20	O	0.601239	0.3207	0.999991
21	C	0.659408	0.361828	0.999998
22	C	0.65402	0.388198	0
23	N	0.619805	0.382032	0
24	C	0.694756	0.368178	3e-06
25	O	0.719565	0.399013	5e-06
26	C	0.703272	0.340665	6e-06
27	C	0.7358	0.347305	5e-06
28	N	0.762659	0.382387	0
29	C	0.674339	0.305176	4e-06
30	O	0.681108	0.281383	7e-06
31	C	0.638423	0.297231	0.999999
32	C	0.612918	0.264855	0.999998
33	N	0.618074	0.236114	0
34	H	0.675152	0.413869	1e-06
35	H	0.742679	0.327598	8e-06
36	H	0.587097	0.260231	0.999997
37	C	0.598902	0.402614	0
38	C	0.589816	0.41156	0.169029
39	C	0.571375	0.429719	0.136869
40	C	0.556987	0.443887	0.298071
41	C	0.560576	0.440351	0.491073
42	C	0.545034	0.455655	0.604091
43	C	0.530165	0.470298	0.493218
44	C	0.511111	0.48906	0.573672
45	C	0.506679	0.493423	0.764101
46	N	0.48879	0.511039	0.776055
47	C	0.481505	0.518214	0.596121
48	C	0.462925	0.536511	0.563329
49	C	0.449708	0.549531	0.697961
50	C	0.432682	0.566297	0.614168
51	C	0.433354	0.56563	0.417626
52	C	0.41691	0.581821	0.28199
53	C	0.399924	0.59855	0.348309
54	S	0.384982	0.613261	0.165619
55	C	0.401098	0.597386	0
56	C	0.41755	0.581186	0.077835
57	S	0.454363	0.544938	0.336663
58	C	0.495311	0.50462	0.468062
59	S	0.535018	0.465521	0.255367
60	C	0.56745	0.433586	0.944307
61	S	0.585862	0.415457	0.804677
62	H	0.596045	0.405425	0.307778
63	H	0.573605	0.42752	0.551071
64	H	0.544965	0.455721	0.758708
65	H	0.514538	0.485682	0.892408
66	H	0.481973	0.517751	0.899619
67	H	0.451865	0.547411	0.850742
68	H	0.420726	0.578073	0.696661
69	H	0.395308	0.6031	0.494153
70	H	0.429404	0.569509	0.99345
71	H	0.494139	0.505776	0.313955
72	H	0.55475	0.446093	0.876685
73	C	0.596815	0.194594	0
74	C	0.587888	0.176702	0.169029
75	C	0.569768	0.140384	0.136869
76	C	0.555631	0.112048	0.298071
77	C	0.55916	0.119119	0.491073
78	C	0.543889	0.088511	0.604091
79	C	0.529277	0.059227	0.493218
80	C	0.510555	0.021702	0.573672
81	C	0.506203	0.012977	0.764101
82	N	0.488624	0.977745	0.776055
83	C	0.481464	0.963397	0.596121
84	C	0.463207	0.926805	0.563329
85	C	0.450216	0.90077	0.697961
86	C	0.433486	0.86724	0.614168
87	C	0.434152	0.868569	0.417626
88	C	0.417995	0.836185	0.28199
89	C	0.401303	0.802731	0.348309
90	S	0.386623	0.773306	0.165619
91	C	0.402464	0.805051	0
92	C	0.41863	0.837451	0.077835
93	S	0.454799	0.909947	0.336663
94	C	0.495029	0.990585	0.468062
95	S	0.534044	0.068782	0.255367
96	C	0.565909	0.132652	0.944307
97	S	0.584	0.168912	0.804677
98	H	0.594009	0.188969	0.307778
99	H	0.571963	0.144779	0.551071
100	H	0.543823	0.088377	0.758708
101	H	0.513926	0.028455	0.892408
102	H	0.481927	0.964321	0.899619
103	H	0.452331	0.905014	0.850742
104	H	0.421735	0.84369	0.696661
105	H	0.396763	0.793636	0.494153
106	H	0.430281	0.8608	0.99345
107	H	0.493876	0.988275	0.313955
108	H	0.55343	0.10764	0.876685
109	C	0.803745	0.402258	0
110	C	0.821757	0.411205	0.169029
111	C	0.858319	0.429363	0.136869
112	C	0.886845	0.443531	0.298071
113	C	0.879726	0.439997	0.491073
114	C	0.91054	0.455301	0.604091
115	C	0.94002	0.469942	0.493218
116	C	0.977796	0.488704	0.573672
117	C	0.98658	0.493067	0.764101
118	N	0.022048	0.510682	0.776055
119	C	0.036493	0.517856	0.596121
120	C	0.07333	0.536151	0.563329
121	C	0.099539	0.549165	0.697961
122	C	0.133294	0.56593	0.614168
123	C	0.131956	0.565268	0.417626
124	C	0.164557	0.581461	0.28199
125	C	0.198235	0.598186	0.348309
126	S	0.227857	0.612899	0.165619
127	C	0.1959	0.59703	0
128	C	0.163283	0.58083	0.077835
129	S	0.090301	0.544582	0.336663
130	C	0.009122	0.504261	0.468062
131	S	0.930401	0.465164	0.255367
132	C	0.866103	0.433228	0.944307
133	S	0.8296	0.415098	0.804677
134	H	0.809408	0.405072	0.307778
135	H	0.853894	0.427168	0.551071
136	H	0.910674	0.455369	0.758708
137	H	0.970998	0.485329	0.892408
138	H	0.035562	0.517395	0.899619
139	H	0.095266	0.547041	0.850742
140	H	0.157001	0.577703	0.696661
141	H	0.207391	0.602731	0.494153
142	H	0.139777	0.569158	0.99345
143	H	0.011448	0.505416	0.313955
144	H	0.891282	0.445733	0.876685
