data_C90H48N12O6S9_2023-05-11_10:13:29
#******************************************
#
# CIF file created by Zeo++
# Zeo++ is an open source package to
# analyze microporous materials
#
#*******************************************

_cell_length_a		38.785   
_cell_length_b		39.0836   
_cell_length_c		7   
_cell_angle_alpha		90   
_cell_angle_beta		90   
_cell_angle_gamma		119.666   

_symmetry_space_group_name_H-M		'P1'
_symmetry_Int_Tables_number		1
_symmetry_cell_setting		Monoclinic

loop_
_symmetry_equiv_pos_as_xyz
'+x,+y,+z'

loop_
_atom_site_label
_atom_site_type_symbol
_atom_site_fract_x
_atom_site_fract_y
_atom_site_fract_z
1	C	0.373281	0.674999	0.999995
2	O	0.408307	0.681126	0.999991
3	C	0.34168	0.634054	0.999998
4	C	0.347882	0.603874	0
5	N	0.387089	0.610932	0
6	C	0.301175	0.626787	3e-06
7	O	0.272771	0.591496	5e-06
8	C	0.291387	0.658276	6e-06
9	C	0.254113	0.650677	5e-06
10	N	0.223364	0.610524	0
11	C	0.324513	0.698893	4e-06
12	O	0.316731	0.726124	7e-06
13	C	0.365668	0.707986	0.999999
14	C	0.394867	0.745041	0.999998
15	N	0.38893	0.777934	0
16	H	0.323687	0.574494	1e-06
17	H	0.24621	0.673231	8e-06
18	H	0.424456	0.750332	0.999997
19	C	0.626719	0.325001	0.999995
20	O	0.591693	0.318874	0.999991
21	C	0.65832	0.365946	0.999998
22	C	0.652118	0.396126	0
23	N	0.612911	0.389068	0
24	C	0.698825	0.373213	3e-06
25	O	0.727229	0.408504	5e-06
26	C	0.708613	0.341724	6e-06
27	C	0.745887	0.349323	5e-06
28	N	0.776636	0.389476	0
29	C	0.675487	0.301107	4e-06
30	O	0.683269	0.273876	7e-06
31	C	0.634332	0.292014	0.999999
32	C	0.605133	0.254959	0.999998
33	N	0.61107	0.222066	0
34	H	0.676313	0.425506	1e-06
35	H	0.75379	0.326769	8e-06
36	H	0.575544	0.249668	0.999997
37	C	0.588934	0.412625	0
38	C	0.57433	0.437331	0.002072
39	S	0.607251	0.481566	0.13093
40	C	0.579061	0.467761	0.346531
41	C	0.591835	0.459358	0.52963
42	C	0.561188	0.449647	0.646293
43	C	0.529883	0.452171	0.550742
44	C	0.539186	0.463551	0.368698
45	C	0.515834	0.470869	0.229257
46	C	0.531604	0.505296	0.117121
47	C	0.509237	0.512702	0.980519
48	C	0.468802	0.48653	0.943156
49	C	0.446115	0.49458	0.80287
50	C	0.422794	0.470793	0.664143
51	C	0.406595	0.489674	0.548831
52	C	0.418792	0.526273	0.609026
53	C	0.443823	0.530961	0.775444
54	S	0.468444	0.573917	0.920802
55	C	0.439188	0.551716	0.13151
56	C	0.411354	0.562289	0.150563
57	C	0.411066	0.587375	0
58	C	0.438695	0.596117	0.864978
59	C	0.45092	0.451022	0.051835
60	N	0.412993	0.421721	0.042601
61	S	0.408029	0.387682	0.197866
62	N	0.45342	0.408153	0.286977
63	C	0.474995	0.443028	0.198581
64	C	0.63977	0.46231	0.181759
65	C	0.625959	0.426782	0.10127
66	H	0.546746	0.431224	0.934745
67	H	0.61947	0.460446	0.561012
68	H	0.559762	0.441286	0.794324
69	H	0.502694	0.446172	0.621516
70	H	0.56265	0.527737	0.13602
71	H	0.524474	0.540172	0.900018
72	H	0.416897	0.441146	0.637243
73	H	0.387311	0.475708	0.428201
74	H	0.411772	0.547495	0.550389
75	H	0.443219	0.532778	0.231097
76	H	0.390341	0.552583	0.267262
77	H	0.442636	0.614522	0.742078
78	H	0.667149	0.477168	0.262268
79	H	0.640883	0.409681	0.111422
80	C	0.586745	0.174547	0
81	C	0.56203	0.135562	0.002072
82	S	0.517382	0.124184	0.13093
83	C	0.531436	0.110015	0.346531
84	C	0.53979	0.130997	0.52963
85	C	0.549748	0.110331	0.646293
86	C	0.547423	0.076861	0.550742
87	C	0.535931	0.074759	0.368698
88	C	0.528738	0.044394	0.229257
89	C	0.494055	0.025794	0.117121
90	C	0.486768	0.996316	0.980519
91	C	0.513325	0.98232	0.943156
92	C	0.505391	0.951885	0.80287
93	C	0.529438	0.952447	0.664143
94	C	0.510583	0.917672	0.548831
95	C	0.473744	0.893381	0.609026
96	C	0.468868	0.913481	0.775444
97	S	0.42556	0.895165	0.920802
98	C	0.448054	0.888282	0.13151
99	C	0.437622	0.85025	0.150563
100	C	0.412429	0.825047	0
101	C	0.403463	0.84369	0.864978
102	C	0.549106	0.999903	0.051835
103	N	0.578788	0.991496	0.042601
104	S	0.613008	0.020398	0.197866
105	N	0.592145	0.044959	0.286977
106	C	0.556974	0.031656	0.198581
107	C	0.536503	0.175474	0.181759
108	C	0.572278	0.197104	0.10127
109	H	0.568348	0.114346	0.934745
110	H	0.538511	0.157248	0.561012
111	H	0.558155	0.117225	0.794324
112	H	0.55363	0.055928	0.621516
113	H	0.471309	0.03421	0.13602
114	H	0.459076	0.9841	0.900018
115	H	0.559253	0.976063	0.637243
116	H	0.52474	0.912471	0.428201
117	H	0.452477	0.865358	0.550389
118	H	0.467046	0.911079	0.231097
119	H	0.44751	0.839108	0.267262
120	H	0.384952	0.829306	0.742078
121	H	0.521398	0.187796	0.262268
122	H	0.589353	0.22885	0.111422
123	C	0.823705	0.412218	0
124	C	0.863024	0.426497	0.002072
125	S	0.874751	0.39364	0.13093
126	C	0.888887	0.421614	0.346531
127	C	0.867758	0.409035	0.52963
128	C	0.888447	0.439412	0.646293
129	C	0.922078	0.470357	0.550742
130	C	0.924267	0.46108	0.368698
131	C	0.954811	0.484127	0.229257
132	C	0.973724	0.468299	0.117121
133	C	0.003379	0.490372	0.980519
134	C	0.017257	0.53054	0.943156
135	C	0.047877	0.552924	0.80287
136	C	0.047152	0.57615	0.664143
137	C	0.082205	0.592044	0.548831
138	C	0.106848	0.579736	0.609026
139	C	0.086693	0.554948	0.775444
140	S	0.105379	0.530308	0.920802
141	C	0.112142	0.559392	0.13151
142	C	0.150408	0.58685	0.150563
143	C	0.175889	0.586968	0
144	C	0.157225	0.559582	0.864978
145	C	0.999358	0.548464	0.051835
146	N	0.007603	0.586172	0.042601
147	S	0.978346	0.59131	0.197866
148	N	0.953819	0.546279	0.286977
149	C	0.967415	0.524706	0.198581
150	C	0.82311	0.361605	0.181759
151	C	0.801146	0.375503	0.10127
152	H	0.88429	0.45382	0.934745
153	H	0.841402	0.381696	0.561012
154	H	0.881467	0.440879	0.794324
155	H	0.94306	0.497289	0.621516
156	H	0.965425	0.437443	0.13602
157	H	0.015833	0.475118	0.900018
158	H	0.023233	0.58218	0.637243
159	H	0.087333	0.61121	0.428201
160	H	0.135135	0.586537	0.550389
161	H	0.089118	0.555533	0.231097
162	H	0.161532	0.607698	0.267262
163	H	0.171796	0.555561	0.742078
164	H	0.810837	0.334426	0.262268
165	H	0.769148	0.360858	0.111422
