data_C78H36N12O6S12_2023-05-13_20:15:35
#******************************************
#
# CIF file created by Zeo++
# Zeo++ is an open source package to
# analyze microporous materials
#
#*******************************************

_cell_length_a		46.5653   
_cell_length_b		46.8638   
_cell_length_c		7   
_cell_angle_alpha		90   
_cell_angle_beta		90   
_cell_angle_gamma		119.722   

_symmetry_space_group_name_H-M		'P1'
_symmetry_Int_Tables_number		1
_symmetry_cell_setting		Monoclinic

loop_
_symmetry_equiv_pos_as_xyz
'+x,+y,+z'

loop_
_atom_site_label
_atom_site_type_symbol
_atom_site_fract_x
_atom_site_fract_y
_atom_site_fract_z
1	C	0.366615	0.673619	0.999995
2	O	0.395794	0.678732	0.999991
3	C	0.340255	0.639453	0.999998
4	C	0.345392	0.61427	0
5	N	0.378055	0.620159	0
6	C	0.306511	0.633389	3e-06
7	O	0.28282	0.603941	5e-06
8	C	0.298388	0.659665	6e-06
9	C	0.267335	0.653324	5e-06
10	N	0.241686	0.619819	0
11	C	0.326017	0.693558	4e-06
12	O	0.31956	0.71628	7e-06
13	C	0.360304	0.701145	0.999999
14	C	0.384659	0.732065	0.999998
15	N	0.379745	0.759513	0
16	H	0.325213	0.589754	1e-06
17	H	0.260773	0.672144	8e-06
18	H	0.40931	0.73648	0.999997
19	C	0.633385	0.326381	0.999995
20	O	0.604206	0.321268	0.999991
21	C	0.659745	0.360547	0.999998
22	C	0.654608	0.38573	0
23	N	0.621945	0.379841	0
24	C	0.693489	0.366611	3e-06
25	O	0.71718	0.396059	5e-06
26	C	0.701612	0.340335	6e-06
27	C	0.732665	0.346676	5e-06
28	N	0.758314	0.380181	0
29	C	0.673983	0.306442	4e-06
30	O	0.68044	0.28372	7e-06
31	C	0.639696	0.298855	0.999999
32	C	0.615341	0.267935	0.999998
33	N	0.620255	0.240487	0
34	H	0.674787	0.410246	1e-06
35	H	0.739227	0.327856	8e-06
36	H	0.59069	0.26352	0.999997
37	C	0.398004	0.600502	0
38	C	0.414679	0.584071	0.043853
39	C	0.417312	0.581476	0.245886
40	C	0.434888	0.564157	0.346784
41	C	0.43734	0.56174	0.54138
42	C	0.454618	0.544715	0.58965
43	C	0.465006	0.534481	0.431413
44	C	0.483342	0.516413	0.427921
45	C	0.493104	0.506797	0.26364
46	N	0.510061	0.490088	0.266592
47	C	0.517355	0.4829	0.441183
48	C	0.535715	0.464809	0.446694
49	C	0.546373	0.454306	0.602634
50	C	0.563588	0.437343	0.550122
51	C	0.565727	0.435236	0.355102
52	C	0.583131	0.418087	0.250367
53	C	0.598194	0.403244	0.345828
54	S	0.614842	0.38684	0.191924
55	C	0.601996	0.399498	0
56	C	0.585404	0.415847	0.047751
57	S	0.547103	0.453588	0.238043
58	C	0.507576	0.492533	0.605354
59	N	0.490621	0.509239	0.603039
60	S	0.453339	0.545978	0.225658
61	C	0.402419	0.59615	0.344832
62	S	0.385501	0.61282	0.194861
63	H	0.424457	0.574438	0.937218
64	H	0.42744	0.571494	0.64645
65	H	0.459312	0.54009	0.734956
66	H	0.487776	0.512048	0.121309
67	H	0.542237	0.458382	0.74991
68	H	0.573689	0.42739	0.652679
69	H	0.60049	0.400981	0.497908
70	H	0.575424	0.425682	0.943552
71	H	0.512979	0.487209	0.747269
72	H	0.400397	0.598141	0.497446
73	C	0.399361	0.798826	0
74	C	0.415758	0.831688	0.043853
75	C	0.418348	0.836877	0.245886
76	C	0.435631	0.871515	0.346784
77	C	0.438043	0.876348	0.54138
78	C	0.455033	0.910398	0.58965
79	C	0.465246	0.930869	0.431413
80	C	0.483277	0.967004	0.427921
81	C	0.492873	0.986238	0.26364
82	N	0.509548	0.019657	0.266592
83	C	0.516721	0.034031	0.441183
84	C	0.534774	0.070213	0.446694
85	C	0.545256	0.091219	0.602634
86	C	0.562183	0.125143	0.550122
87	C	0.564286	0.129358	0.355102
88	C	0.5814	0.163657	0.250367
89	C	0.596212	0.193343	0.345828
90	S	0.612582	0.226151	0.191924
91	C	0.59995	0.200835	0
92	C	0.583635	0.168136	0.047751
93	S	0.545972	0.092655	0.238043
94	C	0.507108	0.014763	0.605354
95	N	0.490436	0.98135	0.603039
96	S	0.453773	0.907875	0.225658
97	C	0.403704	0.807528	0.344832
98	S	0.387069	0.774188	0.194861
99	H	0.425372	0.850956	0.937218
100	H	0.428309	0.856838	0.64645
101	H	0.459649	0.919648	0.734956
102	H	0.487633	0.975738	0.121309
103	H	0.541188	0.083067	0.74991
104	H	0.572115	0.145049	0.652679
105	H	0.59847	0.197867	0.497908
106	H	0.573821	0.148468	0.943552
107	H	0.51242	0.02541	0.747269
108	H	0.401717	0.803544	0.497446
109	C	0.202121	0.600162	0
110	C	0.169049	0.583731	0.043853
111	C	0.163827	0.581137	0.245886
112	C	0.128967	0.563818	0.346784
113	C	0.124104	0.561403	0.54138
114	C	0.089835	0.544377	0.58965
115	C	0.069234	0.534141	0.431413
116	C	0.032867	0.516074	0.427921
117	C	0.01351	0.506456	0.26364
118	N	0.979878	0.489746	0.266592
119	C	0.965411	0.48256	0.441183
120	C	0.928998	0.464469	0.446694
121	C	0.907857	0.453966	0.602634
122	C	0.873716	0.437004	0.550122
123	C	0.869474	0.434896	0.355102
124	C	0.834956	0.417747	0.250367
125	C	0.80508	0.402904	0.345828
126	S	0.772062	0.3865	0.191924
127	C	0.79754	0.399158	0
128	C	0.830448	0.415507	0.047751
129	S	0.906412	0.453247	0.238043
130	C	0.984802	0.492195	0.605354
131	N	0.01843	0.508902	0.603039
132	S	0.092375	0.545638	0.225658
133	C	0.193363	0.595812	0.344832
134	S	0.226917	0.612482	0.194861
135	H	0.149657	0.574097	0.937218
136	H	0.143738	0.571158	0.64645
137	H	0.080526	0.539753	0.734956
138	H	0.024077	0.511705	0.121309
139	H	0.916061	0.458042	0.74991
140	H	0.853683	0.427051	0.652679
141	H	0.800527	0.400642	0.497908
142	H	0.850241	0.425341	0.943552
143	H	0.974087	0.486871	0.747269
144	H	0.197373	0.597805	0.497446
