data_C90H42N6O6S6_2023-05-30_08:45:00
#******************************************
#
# CIF file created by Zeo++
# Zeo++ is an open source package to
# analyze microporous materials
#
#*******************************************

_cell_length_a		40.7204   
_cell_length_b		41.019   
_cell_length_c		7   
_cell_angle_alpha		90   
_cell_angle_beta		90   
_cell_angle_gamma		119.682   

_symmetry_space_group_name_H-M		'P1'
_symmetry_Int_Tables_number		1
_symmetry_cell_setting		Monoclinic

loop_
_symmetry_equiv_pos_as_xyz
'+x,+y,+z'

loop_
_atom_site_label
_atom_site_type_symbol
_atom_site_fract_x
_atom_site_fract_y
_atom_site_fract_z
1	C	0.371385	0.674607	0.999995
2	O	0.404748	0.680446	0.999991
3	C	0.341274	0.635588	0.999998
4	C	0.347171	0.606827	0
5	N	0.384517	0.613553	0
6	C	0.302691	0.628662	3e-06
7	O	0.275627	0.595032	5e-06
8	C	0.293378	0.65867	6e-06
9	C	0.257874	0.651429	5e-06
10	N	0.228574	0.613165	0
11	C	0.324942	0.697378	4e-06
12	O	0.317538	0.723327	7e-06
13	C	0.364143	0.706042	0.999999
14	C	0.391967	0.741355	0.999998
15	N	0.386322	0.7727	0
16	H	0.324117	0.578829	1e-06
17	H	0.250353	0.672923	8e-06
18	H	0.420151	0.746397	0.999997
19	C	0.628615	0.325393	0.999995
20	O	0.595252	0.319554	0.999991
21	C	0.658726	0.364412	0.999998
22	C	0.652829	0.393173	0
23	N	0.615483	0.386447	0
24	C	0.697309	0.371338	3e-06
25	O	0.724373	0.404968	5e-06
26	C	0.706622	0.34133	6e-06
27	C	0.742126	0.348571	5e-06
28	N	0.771426	0.386835	0
29	C	0.675058	0.302622	4e-06
30	O	0.682462	0.276673	7e-06
31	C	0.635857	0.293958	0.999999
32	C	0.608033	0.258645	0.999998
33	N	0.613678	0.2273	0
34	H	0.675883	0.421171	1e-06
35	H	0.749647	0.327077	8e-06
36	H	0.579849	0.253603	0.999997
37	C	0.407347	0.591104	0
38	C	0.43959	0.625021	0.974494
39	S	0.476535	0.619178	0.902188
40	C	0.449031	0.571203	0.906287
41	C	0.465692	0.547889	0.854206
42	C	0.468297	0.541547	0.659478
43	C	0.483265	0.519192	0.600561
44	C	0.495866	0.502616	0.734895
45	C	0.510759	0.48012	0.675094
46	C	0.523378	0.463447	0.80805
47	C	0.521692	0.468622	0.00624
48	C	0.534308	0.45211	0.145794
49	C	0.550968	0.428796	0.093713
50	C	0.587665	0.440054	0.038963
51	C	0.592653	0.408896	0
52	C	0.56041	0.374979	0.025497
53	S	0.523465	0.380822	0.097799
54	C	0.531702	0.458452	0.340523
55	C	0.516734	0.480807	0.39944
56	C	0.504133	0.497383	0.265106
57	C	0.48924	0.519879	0.324907
58	C	0.476622	0.536552	0.19195
59	C	0.478307	0.531377	0.99376
60	C	0.493516	0.508548	0.932436
61	C	0.506484	0.491451	0.067565
62	C	0.412335	0.559946	0.961042
63	H	0.443514	0.652872	0.994116
64	H	0.458565	0.554051	0.5523
65	H	0.484932	0.514814	0.448391
66	H	0.512701	0.475187	0.523852
67	H	0.534561	0.446042	0.75363
68	H	0.609454	0.46923	0.027817
69	H	0.556486	0.347127	0.005869
70	H	0.541435	0.445948	0.447701
71	H	0.515067	0.485185	0.55161
72	H	0.487298	0.524812	0.476149
73	H	0.465439	0.553958	0.246371
74	H	0.390547	0.53077	0.972198
75	C	0.408718	0.817598	0
76	C	0.374455	0.815804	0.974494
77	S	0.380086	0.858169	0.902188
78	C	0.428434	0.878621	0.906287
79	C	0.451739	0.918273	0.854206
80	C	0.45809	0.927152	0.659478
81	C	0.480442	0.964177	0.600561
82	C	0.497006	0.993116	0.734895
83	C	0.5195	0.030206	0.675094
84	C	0.536161	0.05926	0.80805
85	C	0.530975	0.05245	0.00624
86	C	0.547475	0.08134	0.145794
87	C	0.570779	0.120992	0.093713
88	C	0.55924	0.14612	0.038963
89	C	0.590495	0.182015	0
90	C	0.624758	0.183808	0.025497
91	S	0.619127	0.141443	0.097799
92	C	0.541124	0.072461	0.340523
93	C	0.518771	0.035436	0.39944
94	C	0.502208	0.006497	0.265106
95	C	0.479714	0.969407	0.324907
96	C	0.463052	0.940353	0.19195
97	C	0.468238	0.947163	0.99376
98	C	0.491064	0.984896	0.932436
99	C	0.508149	0.014716	0.067565
100	C	0.439973	0.853493	0.961042
101	H	0.346463	0.792013	0.994116
102	H	0.445596	0.905097	0.5523
103	H	0.484828	0.970177	0.448391
104	H	0.524441	0.03703	0.523852
105	H	0.553567	0.08762	0.75363
106	H	0.529805	0.138692	0.027817
107	H	0.652749	0.207599	0.005869
108	H	0.553617	0.094516	0.447701
109	H	0.514386	0.029436	0.55161
110	H	0.474773	0.962583	0.476149
111	H	0.445646	0.911992	0.246371
112	H	0.469408	0.860921	0.972198
113	C	0.183348	0.590716	0
114	C	0.185368	0.558593	0.974494
115	S	0.142792	0.522071	0.902188
116	C	0.121947	0.549594	0.906287
117	C	0.081983	0.533257	0.854206
118	C	0.073026	0.530719	0.659478
119	C	0.035705	0.51605	0.600561
120	C	0.006541	0.503686	0.734895
121	C	0.969154	0.489092	0.675094
122	C	0.939874	0.476712	0.80805
123	C	0.946745	0.478346	0.00624
124	C	0.91763	0.465968	0.145794
125	C	0.877666	0.44963	0.093713
126	C	0.852507	0.413244	0.038963
127	C	0.816265	0.408508	0
128	C	0.814245	0.440631	0.025497
129	S	0.856821	0.477154	0.097799
130	C	0.926587	0.468506	0.340523
131	C	0.963908	0.483175	0.39944
132	C	0.993071	0.495539	0.265106
133	C	0.030459	0.510132	0.324907
134	C	0.059739	0.522513	0.19195
135	C	0.052868	0.520878	0.99376
136	C	0.014833	0.505974	0.932436
137	C	0.98478	0.493251	0.067565
138	C	0.147106	0.58598	0.961042
139	H	0.209436	0.554533	0.994116
140	H	0.095252	0.54027	0.5523
141	H	0.029653	0.514428	0.448391
142	H	0.962271	0.487202	0.523852
143	H	0.911285	0.465756	0.75363
144	H	0.860155	0.391497	0.027817
145	H	0.790177	0.444692	0.005869
146	H	0.904361	0.458955	0.447701
147	H	0.96996	0.484797	0.55161
148	H	0.037342	0.512023	0.476149
149	H	0.088328	0.533468	0.246371
150	H	0.139458	0.607727	0.972198
