data_C90H42N6O6S6_2023-05-13_02:54:56
#******************************************
#
# CIF file created by Zeo++
# Zeo++ is an open source package to
# analyze microporous materials
#
#*******************************************

_cell_length_a		40.578   
_cell_length_b		40.8765   
_cell_length_c		7   
_cell_angle_alpha		90   
_cell_angle_beta		90   
_cell_angle_gamma		119.681   

_symmetry_space_group_name_H-M		'P1'
_symmetry_Int_Tables_number		1
_symmetry_cell_setting		Monoclinic

loop_
_symmetry_equiv_pos_as_xyz
'+x,+y,+z'

loop_
_atom_site_label
_atom_site_type_symbol
_atom_site_fract_x
_atom_site_fract_y
_atom_site_fract_z
1	C	0.371519	0.674635	0.999995
2	O	0.404998	0.680494	0.999991
3	C	0.341302	0.63548	0.999998
4	C	0.347221	0.60662	0
5	N	0.384698	0.613368	0
6	C	0.302584	0.62853	3e-06
7	O	0.275426	0.594783	5e-06
8	C	0.293238	0.658642	6e-06
9	C	0.257609	0.651376	5e-06
10	N	0.228208	0.612979	0
11	C	0.324912	0.697484	4e-06
12	O	0.317481	0.723524	7e-06
13	C	0.364251	0.706179	0.999999
14	C	0.392171	0.741614	0.999998
15	N	0.386505	0.773069	0
16	H	0.324087	0.578524	1e-06
17	H	0.250061	0.672944	8e-06
18	H	0.420454	0.746674	0.999997
19	C	0.628481	0.325365	0.999995
20	O	0.595002	0.319506	0.999991
21	C	0.658698	0.36452	0.999998
22	C	0.652779	0.39338	0
23	N	0.615302	0.386632	0
24	C	0.697416	0.37147	3e-06
25	O	0.724574	0.405217	5e-06
26	C	0.706762	0.341358	6e-06
27	C	0.742391	0.348624	5e-06
28	N	0.771792	0.387021	0
29	C	0.675088	0.302516	4e-06
30	O	0.682519	0.276476	7e-06
31	C	0.635749	0.293821	0.999999
32	C	0.607829	0.258386	0.999998
33	N	0.613495	0.226931	0
34	H	0.675913	0.421476	1e-06
35	H	0.749939	0.327056	8e-06
36	H	0.579546	0.253326	0.999997
37	C	0.592391	0.409158	0
38	C	0.62855	0.439026	0.016176
39	S	0.629842	0.48077	0.969202
40	C	0.581873	0.458472	0.928183
41	C	0.563871	0.48076	0.877162
42	C	0.565494	0.491412	0.685566
43	C	0.548474	0.512084	0.627168
44	C	0.529363	0.522455	0.758773
45	C	0.512307	0.54317	0.69946
46	C	0.493157	0.553621	0.829679
47	C	0.490238	0.543775	0.024514
48	C	0.470952	0.553921	0.161214
49	C	0.451663	0.574928	0.108776
50	C	0.416017	0.561488	0.030178
51	C	0.407609	0.590842	0
52	C	0.436293	0.625553	0.055281
53	S	0.474034	0.622682	0.145274
54	C	0.469302	0.543241	0.352781
55	C	0.486513	0.52276	0.41139
56	C	0.505636	0.512401	0.279798
57	C	0.522833	0.491827	0.339267
58	C	0.541949	0.481342	0.20901
59	C	0.544641	0.490962	0.013925
60	C	0.527258	0.511997	0.95306
61	C	0.507664	0.522782	0.085426
62	C	0.565295	0.4199	0.949227
63	H	0.654258	0.438676	0.052779
64	H	0.58011	0.483574	0.580423
65	H	0.550282	0.51999	0.477526
66	H	0.51374	0.551548	0.550795
67	H	0.480544	0.569908	0.77593
68	H	0.397315	0.532064	0.996596
69	H	0.437195	0.652404	0.048002
70	H	0.454487	0.550881	0.457705
71	H	0.484798	0.514947	0.561134
72	H	0.521655	0.483703	0.488212
73	H	0.554993	0.465484	0.263235
74	H	0.535246	0.400771	0.929076
75	C	0.590231	0.181489	0
76	C	0.560008	0.187594	0.016176
77	S	0.518083	0.147395	0.969202
78	C	0.540781	0.122084	0.928183
79	C	0.518516	0.082125	0.877162
80	C	0.507808	0.073146	0.685566
81	C	0.48716	0.035765	0.627168
82	C	0.476869	0.00655	0.758773
83	C	0.456177	0.969091	0.69946
84	C	0.445806	0.939757	0.829679
85	C	0.455711	0.946651	0.024514
86	C	0.445647	0.917487	0.161214
87	C	0.424676	0.877527	0.108776
88	C	0.4384	0.855608	0.030178
89	C	0.408979	0.818122	0
90	C	0.37394	0.812017	0.055281
91	S	0.37658	0.852216	0.145274
92	C	0.456381	0.926465	0.352781
93	C	0.476837	0.963846	0.41139
94	C	0.487116	0.993061	0.279798
95	C	0.507666	0.03052	0.339267
96	C	0.518072	0.059854	0.20901
97	C	0.508395	0.05296	0.013925
98	C	0.487383	0.014858	0.95306
99	C	0.476679	0.984753	0.085426
100	C	0.579618	0.144003	0.949227
101	H	0.560195	0.213379	0.052779
102	H	0.515586	0.095397	0.580423
103	H	0.47921	0.0297	0.477526
104	H	0.447756	0.962185	0.550795
105	H	0.429531	0.911093	0.77593
106	H	0.468066	0.866337	0.996596
107	H	0.346972	0.786232	0.048002
108	H	0.448804	0.904214	0.457705
109	H	0.484693	0.969911	0.561134
110	H	0.515831	0.037427	0.488212
111	H	0.533911	0.088518	0.263235
112	H	0.599019	0.133276	0.929076
113	C	0.816788	0.408769	0
114	C	0.810853	0.372797	0.016176
115	S	0.851487	0.371252	0.969202
116	C	0.876757	0.418861	0.928183
117	C	0.917025	0.436532	0.877162
118	C	0.926109	0.434858	0.685566
119	C	0.963777	0.451567	0.627168
120	C	0.993179	0.470411	0.758773
121	C	0.030927	0.487156	0.69946
122	C	0.060448	0.506039	0.829679
123	C	0.053462	0.50899	0.024514
124	C	0.082812	0.528009	0.161214
125	C	0.123071	0.546961	0.108776
126	C	0.144993	0.58232	0.030178
127	C	0.182823	0.590452	0
128	C	0.189178	0.561846	0.055281
129	S	0.148796	0.524518	0.145274
130	C	0.073728	0.52971	0.352781
131	C	0.03606	0.51281	0.41139
132	C	0.006659	0.493955	0.279798
133	C	0.968912	0.477069	0.339267
134	C	0.93939	0.458221	0.20901
135	C	0.946375	0.455495	0.013925
136	C	0.98477	0.472561	0.95306
137	C	0.015068	0.491881	0.085426
138	C	0.854498	0.435513	0.949227
139	H	0.784959	0.347361	0.052779
140	H	0.903716	0.420445	0.580423
141	H	0.969919	0.449727	0.477526
142	H	0.037915	0.485684	0.550795
143	H	0.089335	0.518415	0.77593
144	H	0.13403	0.601015	0.996596
145	H	0.215243	0.560781	0.048002
146	H	0.09612	0.544321	0.457705
147	H	0.02992	0.514558	0.561134
148	H	0.961925	0.478287	0.488212
149	H	0.910506	0.445414	0.263235
150	H	0.865146	0.46537	0.929076
