data_C102H48N6O6S21_2023-05-13_10:24:17
#******************************************
#
# CIF file created by Zeo++
# Zeo++ is an open source package to
# analyze microporous materials
#
#*******************************************

_cell_length_a		60.7512   
_cell_length_b		61.0496   
_cell_length_c		7   
_cell_angle_alpha		90   
_cell_angle_beta		90   
_cell_angle_gamma		119.786   

_symmetry_space_group_name_H-M		'P1'
_symmetry_Int_Tables_number		1
_symmetry_cell_setting		Monoclinic

loop_
_symmetry_equiv_pos_as_xyz
'+x,+y,+z'

loop_
_atom_site_label
_atom_site_type_symbol
_atom_site_fract_x
_atom_site_fract_y
_atom_site_fract_z
1	C	0.35885	0.672007	0.999995
2	O	0.381221	0.675935	0.999991
3	C	0.338612	0.645763	0.999998
4	C	0.342524	0.626419	0
5	N	0.367566	0.630943	0
6	C	0.312741	0.641105	3e-06
7	O	0.294553	0.618485	5e-06
8	C	0.306541	0.661288	6e-06
9	C	0.282733	0.656418	5e-06
10	N	0.26304	0.630682	0
11	C	0.327752	0.687323	4e-06
12	O	0.322826	0.704776	7e-06
13	C	0.354041	0.693151	0.999999
14	C	0.37274	0.716901	0.999998
15	N	0.369001	0.737984	0
16	H	0.327032	0.607587	1e-06
17	H	0.277722	0.670874	8e-06
18	H	0.391639	0.720293	0.999997
19	C	0.64115	0.327993	0.999995
20	O	0.618779	0.324065	0.999991
21	C	0.661388	0.354237	0.999998
22	C	0.657476	0.373581	0
23	N	0.632434	0.369057	0
24	C	0.687259	0.358895	3e-06
25	O	0.705447	0.381515	5e-06
26	C	0.693459	0.338712	6e-06
27	C	0.717267	0.343582	5e-06
28	N	0.73696	0.369318	0
29	C	0.672248	0.312677	4e-06
30	O	0.677174	0.295224	7e-06
31	C	0.645959	0.306849	0.999999
32	C	0.62726	0.283099	0.999998
33	N	0.630999	0.262016	0
34	H	0.672968	0.392413	1e-06
35	H	0.722278	0.329126	8e-06
36	H	0.608361	0.279707	0.999997
37	C	0.382837	0.615844	0
38	C	0.380525	0.618128	0.192495
39	S	0.394459	0.604351	0.319129
40	C	0.403715	0.5952	0.11521
41	C	0.417576	0.581496	0.118923
42	C	0.425647	0.573515	0.962589
43	C	0.43883	0.560481	0.014111
44	C	0.440744	0.558588	0.209524
45	C	0.452752	0.546715	0.312726
46	C	0.454665	0.544824	0.508501
47	C	0.467844	0.531793	0.560636
48	C	0.475722	0.524005	0.403336
49	C	0.49076	0.509136	0.411376
50	C	0.497591	0.502383	0.579158
51	S	0.513677	0.486478	0.540274
52	C	0.511871	0.488264	0.296008
53	C	0.522553	0.477704	0.163759
54	C	0.521884	0.478369	0.966445
55	C	0.534132	0.466259	0.877202
56	C	0.544091	0.456408	0.006836
57	C	0.557633	0.443018	0.962611
58	C	0.56308	0.437631	0.782655
59	C	0.5767	0.424164	0.787404
60	C	0.581579	0.41934	0.970976
61	C	0.594971	0.406099	0.024597
62	C	0.605348	0.395839	0.901445
63	C	0.617163	0.384156	0
64	C	0.615839	0.385465	0.194567
65	S	0.600113	0.401014	0.258795
66	S	0.569347	0.431436	0.133981
67	S	0.53821	0.462219	0.235671
68	C	0.499015	0.500975	0.248885
69	S	0.467199	0.532432	0.19588
70	S	0.426331	0.572838	0.326164
71	C	0.396009	0.602819	0.954015
72	H	0.371436	0.627115	0.26563
73	H	0.42239	0.576735	0.815777
74	H	0.44648	0.552916	0.910001
75	H	0.446998	0.552404	0.612397
76	H	0.471148	0.528527	0.70714
77	H	0.494073	0.50586	0.724237
78	H	0.513022	0.487134	0.886889
79	H	0.535416	0.464992	0.723725
80	H	0.55764	0.443009	0.651139
81	H	0.582538	0.41839	0.659776
82	H	0.604489	0.39669	0.747336
83	H	0.623226	0.378161	0.302409
84	H	0.495614	0.504338	0.102892
85	H	0.399675	0.599196	0.809414
86	C	0.384076	0.768182	0
87	C	0.381795	0.763613	0.192495
88	S	0.39555	0.791166	0.319129
89	C	0.404687	0.80947	0.11521
90	C	0.41837	0.836878	0.118923
91	C	0.426338	0.852839	0.962589
92	C	0.439351	0.878908	0.014111
93	C	0.441241	0.882693	0.209524
94	C	0.453095	0.906439	0.312726
95	C	0.454983	0.910221	0.508501
96	C	0.467994	0.936284	0.560636
97	C	0.475769	0.95186	0.403336
98	C	0.490615	0.981598	0.411376
99	C	0.497357	0.995104	0.579158
100	S	0.513237	0.026915	0.540274
101	C	0.511454	0.023343	0.296008
102	C	0.521998	0.044465	0.163759
103	C	0.521333	0.043137	0.966445
104	C	0.533424	0.067359	0.877202
105	C	0.543259	0.087056	0.006836
106	C	0.556628	0.113835	0.962611
107	C	0.562007	0.124609	0.782655
108	C	0.575452	0.151541	0.787404
109	C	0.580268	0.161189	0.970976
110	C	0.593489	0.187672	0.024597
111	C	0.603732	0.208192	0.901445
112	C	0.615397	0.231557	0
113	C	0.61409	0.228939	0.194567
114	S	0.598566	0.197841	0.258795
115	S	0.568192	0.136999	0.133981
116	S	0.537458	0.07543	0.235671
117	C	0.498763	0.997921	0.248885
118	S	0.467356	0.935006	0.19588
119	S	0.427013	0.854193	0.326164
120	C	0.39708	0.794231	0.954015
121	H	0.372823	0.74564	0.26563
122	H	0.423123	0.846399	0.815777
123	H	0.446904	0.894037	0.910001
124	H	0.447415	0.89506	0.612397
125	H	0.471255	0.942816	0.70714
126	H	0.493885	0.988149	0.724237
127	H	0.512582	0.025611	0.886889
128	H	0.534689	0.069895	0.723725
129	H	0.556638	0.113852	0.651139
130	H	0.581217	0.163088	0.659776
131	H	0.602883	0.206492	0.747336
132	H	0.621382	0.243546	0.302409
133	H	0.495405	0.991194	0.102892
134	H	0.400698	0.801479	0.809414
135	C	0.232694	0.615583	0
136	C	0.237286	0.617868	0.192495
137	S	0.209597	0.604091	0.319129
138	C	0.191204	0.594939	0.11521
139	C	0.163661	0.581235	0.118923
140	C	0.147621	0.573254	0.962589
141	C	0.121425	0.56022	0.014111
142	C	0.117621	0.558328	0.209524
143	C	0.093759	0.546454	0.312726
144	C	0.089958	0.544564	0.508501
145	C	0.063768	0.531532	0.560636
146	C	0.048115	0.523744	0.403336
147	C	0.018231	0.508875	0.411376
148	C	0.004658	0.502121	0.579158
149	S	0.972692	0.486216	0.540274
150	C	0.976282	0.488002	0.296008
151	C	0.955056	0.47744	0.163759
152	C	0.95639	0.478102	0.966445
153	C	0.932049	0.465991	0.877202
154	C	0.912255	0.456144	0.006836
155	C	0.885345	0.442755	0.962611
156	C	0.874519	0.437369	0.782655
157	C	0.847454	0.423903	0.787404
158	C	0.837759	0.419079	0.970976
159	C	0.811146	0.405838	0.024597
160	C	0.790526	0.395578	0.901445
161	C	0.767046	0.383895	0
162	C	0.769677	0.385205	0.194567
163	S	0.800927	0.400754	0.258795
164	S	0.862067	0.431173	0.133981
165	S	0.923939	0.461959	0.235671
166	C	0.001828	0.500713	0.248885
167	S	0.065052	0.532171	0.19588
168	S	0.146261	0.572578	0.326164
169	C	0.206517	0.602558	0.954015
170	H	0.255347	0.626855	0.26563
171	H	0.154093	0.576474	0.815777
172	H	0.106222	0.552656	0.910001
173	H	0.105193	0.552144	0.612397
174	H	0.057203	0.528266	0.70714
175	H	0.011648	0.505599	0.724237
176	H	0.974002	0.486864	0.886889
177	H	0.929501	0.464722	0.723725
178	H	0.885328	0.442748	0.651139
179	H	0.835851	0.41813	0.659776
180	H	0.792234	0.396427	0.747336
181	H	0.754999	0.377902	0.302409
182	H	0.008588	0.504076	0.102892
183	H	0.199234	0.598934	0.809414
