data_C105H54N6O6S18_2023-05-13_05:22:21
#******************************************
#
# CIF file created by Zeo++
# Zeo++ is an open source package to
# analyze microporous materials
#
#*******************************************

_cell_length_a		53.0464   
_cell_length_b		53.3448   
_cell_length_c		7   
_cell_angle_alpha		90   
_cell_angle_beta		90   
_cell_angle_gamma		119.756   

_symmetry_space_group_name_H-M		'P1'
_symmetry_Int_Tables_number		1
_symmetry_cell_setting		Monoclinic

loop_
_symmetry_equiv_pos_as_xyz
'+x,+y,+z'

loop_
_atom_site_label
_atom_site_type_symbol
_atom_site_fract_x
_atom_site_fract_y
_atom_site_fract_z
1	C	0.362553	0.672777	0.999995
2	O	0.38817	0.67727	0.999991
3	C	0.339393	0.642751	0.999998
4	C	0.343888	0.62062	0
5	N	0.372563	0.625795	0
6	C	0.309768	0.637422	3e-06
7	O	0.288954	0.611543	5e-06
8	C	0.302653	0.660513	6e-06
9	C	0.275391	0.654941	5e-06
10	N	0.252855	0.625497	0
11	C	0.326927	0.690299	4e-06
12	O	0.321273	0.710267	7e-06
13	C	0.357029	0.696966	0.999999
14	C	0.378428	0.724139	0.999998
15	N	0.374131	0.74826	0
16	H	0.326159	0.599075	1e-06
17	H	0.269642	0.671481	8e-06
18	H	0.400069	0.728019	0.999997
19	C	0.637447	0.327223	0.999995
20	O	0.61183	0.32273	0.999991
21	C	0.660607	0.357249	0.999998
22	C	0.656112	0.37938	0
23	N	0.627437	0.374205	0
24	C	0.690232	0.362578	3e-06
25	O	0.711046	0.388457	5e-06
26	C	0.697347	0.339487	6e-06
27	C	0.724609	0.345059	5e-06
28	N	0.747145	0.374503	0
29	C	0.673073	0.309701	4e-06
30	O	0.678727	0.289733	7e-06
31	C	0.642971	0.303034	0.999999
32	C	0.621572	0.275861	0.999998
33	N	0.625869	0.25174	0
34	H	0.673841	0.400925	1e-06
35	H	0.730358	0.328519	8e-06
36	H	0.599931	0.271981	0.999997
37	C	0.390063	0.608521	0
38	C	0.386808	0.616235	0.181021
39	C	0.39524	0.602297	0.320743
40	C	0.404646	0.584518	0.24129
41	C	0.414931	0.567331	0.339131
42	C	0.42347	0.548934	0.260312
43	C	0.43265	0.535683	0.400182
44	C	0.430933	0.543997	0.584562
45	C	0.439006	0.53485	0.757716
46	C	0.458115	0.524296	0.771811
47	C	0.461678	0.516927	0.962906
48	C	0.480152	0.505747	0.018883
49	C	0.49008	0.505622	0.195612
50	C	0.509074	0.492114	0.194046
51	C	0.508387	0.484372	0.986804
52	C	0.523846	0.470584	0.91953
53	C	0.539898	0.462793	0.034748
54	S	0.555741	0.446706	0.910512
55	C	0.541585	0.449784	0.696858
56	C	0.546672	0.439521	0.516922
57	C	0.531792	0.43588	0.347509
58	C	0.542171	0.425547	0.195738
59	C	0.564878	0.42138	0.250487
60	C	0.58034	0.411325	0.130548
61	C	0.580777	0.411134	0.932321
62	C	0.597985	0.399682	0.85648
63	C	0.609937	0.391479	0
64	S	0.600926	0.397205	0.220789
65	S	0.573192	0.430344	0.486385
66	C	0.524959	0.462943	0.724632
67	C	0.491677	0.492436	0.890538
68	C	0.444739	0.522073	0.088657
69	S	0.425178	0.53545	0.978374
70	S	0.418126	0.567858	0.583559
71	S	0.402813	0.585118	0.995323
72	H	0.378917	0.630977	0.213742
73	H	0.394375	0.605425	0.473118
74	H	0.423326	0.544924	0.108433
75	H	0.440038	0.520605	0.365103
76	H	0.469496	0.522357	0.649217
77	H	0.485673	0.514143	0.323301
78	H	0.531039	0.507713	0.24167
79	H	0.499878	0.473034	0.286353
80	H	0.54339	0.465581	0.18726
81	H	0.51402	0.440242	0.331304
82	H	0.533033	0.42126	0.053219
83	H	0.569431	0.419041	0.843881
84	H	0.601215	0.397739	0.705643
85	H	0.514039	0.467107	0.608583
86	H	0.48693	0.489448	0.739757
87	H	0.44254	0.51855	0.241294
88	C	0.391374	0.782809	0
89	C	0.383651	0.771904	0.181021
90	C	0.397592	0.794138	0.320743
91	C	0.415381	0.82116	0.24129
92	C	0.432572	0.848465	0.339131
93	C	0.450985	0.875242	0.260312
94	C	0.464233	0.897534	0.400182
95	C	0.455901	0.887557	0.584562
96	C	0.465038	0.904668	0.757716
97	C	0.475531	0.934125	0.771811
98	C	0.482906	0.944993	0.962906
99	C	0.494031	0.974444	0.018883
100	C	0.494107	0.984416	0.195612
101	C	0.507564	0.0167	0.194046
102	C	0.515334	0.023722	0.986804
103	C	0.52909	0.052778	0.91953
104	C	0.536827	0.076453	0.034748
105	S	0.552887	0.108177	0.910512
106	C	0.549869	0.091071	0.696858
107	C	0.560139	0.10633	0.516922
108	C	0.563865	0.095193	0.347509
109	C	0.57418	0.115771	0.195738
110	C	0.578248	0.142442	0.250487
111	C	0.588259	0.167785	0.130548
112	C	0.588448	0.168409	0.932321
113	C	0.599852	0.196874	0.85648
114	C	0.608022	0.216893	0
115	S	0.602323	0.202256	0.220789
116	S	0.569215	0.141769	0.486385
117	C	0.53675	0.061484	0.724632
118	C	0.507327	0.999121	0.890538
119	C	0.477826	0.923069	0.088657
120	S	0.464503	0.890354	0.978374
121	S	0.432028	0.851111	0.583559
122	S	0.414788	0.818744	0.995323
123	H	0.368902	0.749407	0.213742
124	H	0.394459	0.790168	0.473118
125	H	0.455009	0.87909	0.108433
126	H	0.479322	0.919866	0.365103
127	H	0.47742	0.947344	0.649217
128	H	0.485581	0.971566	0.323301
129	H	0.491809	0.022966	0.24167
130	H	0.52675	0.026563	0.286353
131	H	0.534012	0.077143	0.18726
132	H	0.559576	0.073223	0.331304
133	H	0.578525	0.110972	0.053219
134	H	0.580572	0.149286	0.843881
135	H	0.601786	0.202012	0.705643
136	H	0.532627	0.046509	0.608583
137	H	0.510347	0.997385	0.739757
138	H	0.481372	0.924393	0.241294
139	C	0.218112	0.608223	0
140	C	0.22909	0.611413	0.181021
141	C	0.206717	0.603118	0.320743
142	C	0.179522	0.593874	0.24129
143	C	0.152046	0.583756	0.339131
144	C	0.125094	0.575376	0.260312
145	C	0.102666	0.566335	0.400182
146	C	0.112715	0.567998	0.584562
147	C	0.095505	0.560034	0.757716
148	C	0.065904	0.541131	0.771811
149	C	0.054966	0.537633	0.962906
150	C	0.025366	0.519362	0.018883
151	C	0.015362	0.509514	0.195612
152	C	0.98291	0.490739	0.194046
153	C	0.975828	0.491458	0.986804
154	C	0.946612	0.476191	0.91953
155	C	0.922825	0.460307	0.034748
156	S	0.89092	0.44467	0.910512
157	C	0.908096	0.458697	0.696858
158	C	0.892738	0.453701	0.516922
159	C	0.903892	0.468479	0.347509
160	C	0.883198	0.458235	0.195738
161	C	0.856423	0.43573	0.250487
162	C	0.830951	0.420443	0.130548
163	C	0.830324	0.42001	0.932321
164	C	0.801712	0.402996	0.85648
165	C	0.78159	0.39118	0
166	S	0.796301	0.400091	0.220789
167	S	0.857143	0.427439	0.486385
168	C	0.937841	0.475125	0.724632
169	C	0.000545	0.507995	0.890538
170	C	0.076983	0.55441	0.088657
171	S	0.109868	0.573748	0.978374
172	S	0.149395	0.580584	0.583559
173	S	0.181948	0.59569	0.995323
174	H	0.25173	0.619169	0.213742
175	H	0.210715	0.60396	0.473118
176	H	0.121214	0.575539	0.108433
177	H	0.080189	0.559081	0.365103
178	H	0.052633	0.529851	0.649217
179	H	0.028295	0.513844	0.323301
180	H	0.976702	0.468874	0.24167
181	H	0.972921	0.499955	0.286353
182	H	0.922146	0.456828	0.18726
183	H	0.925953	0.486088	0.331304
184	H	0.887991	0.46732	0.053219
185	H	0.849545	0.431225	0.843881
186	H	0.796548	0.399801	0.705643
187	H	0.952884	0.485937	0.608583
188	H	0.002272	0.512719	0.739757
189	H	0.075638	0.556609	0.241294
