data_C72H42N12O6S6_2023-05-11_06:47:39
#******************************************
#
# CIF file created by Zeo++
# Zeo++ is an open source package to
# analyze microporous materials
#
#*******************************************

_cell_length_a		30.9974   
_cell_length_b		31.2961   
_cell_length_c		7   
_cell_angle_alpha		90   
_cell_angle_beta		90   
_cell_angle_gamma		119.583   

_symmetry_space_group_name_H-M		'P1'
_symmetry_Int_Tables_number		1
_symmetry_cell_setting		Monoclinic

loop_
_symmetry_equiv_pos_as_xyz
'+x,+y,+z'

loop_
_atom_site_label
_atom_site_type_symbol
_atom_site_fract_x
_atom_site_fract_y
_atom_site_fract_z
1	C	0.3833	0.677064	0.999995
2	O	0.427112	0.684709	0.999991
3	C	0.343845	0.625973	0.999998
4	C	0.351669	0.588314	0
5	N	0.400711	0.59712	0
6	C	0.293179	0.616904	3e-06
7	O	0.257714	0.572869	5e-06
8	C	0.280866	0.656196	6e-06
9	C	0.234244	0.646714	5e-06
10	N	0.195854	0.596612	0
11	C	0.322228	0.706879	4e-06
12	O	0.312434	0.740858	7e-06
13	C	0.373704	0.718225	0.999999
14	C	0.410162	0.764462	0.999998
15	N	0.402664	0.805506	0
16	H	0.321457	0.551653	1e-06
17	H	0.224307	0.674858	8e-06
18	H	0.447173	0.771064	0.999997
19	C	0.6167	0.322936	0.999995
20	O	0.572888	0.315291	0.999991
21	C	0.656155	0.374027	0.999998
22	C	0.648331	0.411686	0
23	N	0.599289	0.40288	0
24	C	0.706821	0.383096	3e-06
25	O	0.742286	0.427131	5e-06
26	C	0.719134	0.343804	6e-06
27	C	0.765756	0.353286	5e-06
28	N	0.804146	0.403388	0
29	C	0.677772	0.293121	4e-06
30	O	0.687566	0.259142	7e-06
31	C	0.626296	0.281775	0.999999
32	C	0.589838	0.235538	0.999998
33	N	0.597336	0.194494	0
34	H	0.678543	0.448347	1e-06
35	H	0.775693	0.325142	8e-06
36	H	0.552827	0.228936	0.999997
37	C	0.569239	0.432274	0
38	C	0.563984	0.449693	0.173265
39	C	0.541527	0.411107	0.310594
40	C	0.529803	0.417872	0.521459
41	C	0.539624	0.461356	0.607855
42	C	0.52121	0.45028	0.797474
43	C	0.522365	0.482606	0.94342
44	C	0.518402	0.523383	0.928463
45	C	0.508728	0.544212	0.764061
46	C	0.52796	0.593972	0.737204
47	N	0.510836	0.600647	0.565294
48	C	0.480349	0.555915	0.482894
49	C	0.454131	0.548102	0.285558
50	C	0.424207	0.502222	0.207789
51	S	0.400969	0.505573	0.989434
52	C	0.430761	0.567726	0
53	C	0.457992	0.586426	0.163966
54	C	0.477542	0.520153	0.605605
55	C	0.502611	0.400584	0.823675
56	N	0.507651	0.38123	0.654715
57	C	0.530848	0.366257	0.234829
58	S	0.547981	0.370946	0.999262
59	H	0.57537	0.487869	0.200414
60	H	0.55771	0.497286	0.541643
61	H	0.527696	0.472909	0.087598
62	H	0.522772	0.543355	0.061099
63	H	0.552677	0.625249	0.823605
64	H	0.519478	0.633549	0.507992
65	H	0.414701	0.466717	0.266766
66	H	0.479388	0.625314	0.194469
67	H	0.455824	0.480871	0.583591
68	H	0.485787	0.377136	0.946385
69	H	0.496567	0.345395	0.632042
70	H	0.513924	0.330729	0.303458
71	C	0.566998	0.135199	0
72	C	0.549528	0.112743	0.173265
73	C	0.588512	0.128856	0.310594
74	C	0.581808	0.110584	0.521459
75	C	0.538005	0.07715	0.607855
76	C	0.549295	0.06997	0.797474
77	C	0.516784	0.039055	0.94342
78	C	0.475818	0.99471	0.928463
79	C	0.454956	0.964512	0.764061
80	C	0.404765	0.934138	0.737204
81	N	0.398197	0.910629	0.565294
82	C	0.443427	0.924917	0.482894
83	C	0.451502	0.906804	0.285558
84	C	0.497883	0.922786	0.207789
85	S	0.494708	0.896543	0.989434
86	C	0.431967	0.864294	0
87	C	0.412937	0.872609	0.163966
88	C	0.479408	0.957611	0.605605
89	C	0.599417	0.100906	0.823675
90	N	0.618834	0.125069	0.654715
91	C	0.633695	0.162797	0.234829
92	S	0.628837	0.175046	0.999262
93	H	0.511048	0.086116	0.200414
94	H	0.501729	0.05936	0.541643
95	H	0.526489	0.053928	0.087598
96	H	0.455701	0.979216	0.061099
97	H	0.373111	0.927503	0.823605
98	H	0.365043	0.886526	0.507992
99	H	0.53366	0.948617	0.266766
100	H	0.373659	0.85515	0.194469
101	H	0.519084	0.975143	0.583591
102	H	0.623134	0.107564	0.946385
103	H	0.654957	0.149672	0.632042
104	H	0.669558	0.181336	0.303458
105	C	0.862993	0.431766	0
106	C	0.885717	0.436803	0.173265
107	C	0.869191	0.459276	0.310594
108	C	0.887618	0.470783	0.521459
109	C	0.9216	0.460733	0.607855
110	C	0.928725	0.478988	0.797474
111	C	0.96008	0.477578	0.94342
112	C	0.005009	0.481145	0.928463
113	C	0.035545	0.490514	0.764061
114	C	0.066504	0.471128	0.737204
115	N	0.090197	0.487962	0.565294
116	C	0.075453	0.518406	0.482894
117	C	0.093596	0.544332	0.285558
118	C	0.07714	0.574231	0.207789
119	S	0.103552	0.597123	0.989434
120	C	0.136501	0.567218	0
121	C	0.1283	0.540203	0.163966
122	C	0.042279	0.521474	0.605605
123	C	0.897201	0.497748	0.823675
124	N	0.872745	0.492939	0.654715
125	C	0.834687	0.470184	0.234829
126	S	0.822412	0.453247	0.999262
127	H	0.912811	0.425253	0.200414
128	H	0.939791	0.442593	0.541643
129	H	0.945045	0.472401	0.087598
130	H	0.020756	0.476668	0.061099
131	H	0.073441	0.446487	0.823605
132	H	0.114708	0.479163	0.507992
133	H	0.050868	0.583905	0.266766
134	H	0.146182	0.518775	0.194469
135	H	0.024321	0.543225	0.583591
136	H	0.890309	0.514539	0.946385
137	H	0.847705	0.504171	0.632042
138	H	0.815747	0.487174	0.303458
