data_C102H48N6O6S21_2023-05-12_19:38:27
#******************************************
#
# CIF file created by Zeo++
# Zeo++ is an open source package to
# analyze microporous materials
#
#*******************************************

_cell_length_a		58.4786   
_cell_length_b		58.7771   
_cell_length_c		7   
_cell_angle_alpha		90   
_cell_angle_beta		90   
_cell_angle_gamma		119.778   

_symmetry_space_group_name_H-M		'P1'
_symmetry_Int_Tables_number		1
_symmetry_cell_setting		Monoclinic

loop_
_symmetry_equiv_pos_as_xyz
'+x,+y,+z'

loop_
_atom_site_label
_atom_site_type_symbol
_atom_site_fract_x
_atom_site_fract_y
_atom_site_fract_z
1	C	0.359841	0.672213	0.999995
2	O	0.38308	0.676292	0.999991
3	C	0.33882	0.644957	0.999998
4	C	0.342888	0.624866	0
5	N	0.368902	0.629564	0
6	C	0.311945	0.640119	3e-06
7	O	0.293054	0.616627	5e-06
8	C	0.305501	0.661081	6e-06
9	C	0.280768	0.656022	5e-06
10	N	0.260314	0.629293	0
11	C	0.327532	0.68812	4e-06
12	O	0.322412	0.706247	7e-06
13	C	0.354841	0.694172	0.999999
14	C	0.374263	0.718839	0.999998
15	N	0.370375	0.740736	0
16	H	0.326797	0.605308	1e-06
17	H	0.27556	0.671037	8e-06
18	H	0.393895	0.722362	0.999997
19	C	0.640159	0.327787	0.999995
20	O	0.61692	0.323708	0.999991
21	C	0.66118	0.355043	0.999998
22	C	0.657112	0.375134	0
23	N	0.631098	0.370436	0
24	C	0.688055	0.359881	3e-06
25	O	0.706946	0.383373	5e-06
26	C	0.694499	0.338919	6e-06
27	C	0.719232	0.343978	5e-06
28	N	0.739686	0.370707	0
29	C	0.672468	0.31188	4e-06
30	O	0.677588	0.293753	7e-06
31	C	0.645159	0.305828	0.999999
32	C	0.625737	0.281161	0.999998
33	N	0.629625	0.259264	0
34	H	0.673203	0.394692	1e-06
35	H	0.72444	0.328963	8e-06
36	H	0.606105	0.277638	0.999997
37	C	0.384769	0.613883	0
38	C	0.395508	0.603271	0.880355
39	C	0.407616	0.591304	0.986287
40	C	0.405672	0.593224	0.182607
41	C	0.415606	0.583405	0.33251
42	C	0.413665	0.585322	0.528016
43	C	0.425786	0.573341	0.633345
44	C	0.436906	0.562353	0.517683
45	C	0.450641	0.54878	0.580027
46	C	0.455163	0.544311	0.766913
47	C	0.469294	0.530347	0.78102
48	C	0.47527	0.52444	0.604312
49	C	0.490719	0.509173	0.569627
50	C	0.499896	0.500104	0.714967
51	S	0.515796	0.484392	0.631092
52	C	0.510735	0.489393	0.396394
53	C	0.519888	0.480348	0.236192
54	C	0.516601	0.483599	0.044385
55	C	0.527919	0.472414	0.921932
56	C	0.539788	0.46068	0.020874
57	C	0.553019	0.447603	0.938939
58	C	0.556201	0.444456	0.74676
59	C	0.570157	0.430663	0.712681
60	C	0.577555	0.423353	0.879029
61	C	0.59192	0.409156	0.893601
62	C	0.600909	0.400274	0.743319
63	C	0.614416	0.386925	0.804797
64	C	0.615231	0.386117	0
65	S	0.600272	0.4009	0.108632
66	S	0.56723	0.433559	0.073867
67	S	0.536808	0.463622	0.262265
68	C	0.496999	0.502967	0.386646
69	S	0.463857	0.535718	0.424728
70	S	0.432261	0.566946	0.281763
71	S	0.388935	0.609764	0.233808
72	H	0.394888	0.603884	0.72591
73	H	0.417303	0.58173	0.919268
74	H	0.403992	0.594879	0.595435
75	H	0.426145	0.572985	0.787949
76	H	0.448701	0.550698	0.89047
77	H	0.474592	0.525111	0.915497
78	H	0.49822	0.50176	0.867394
79	H	0.506511	0.493574	0.991496
80	H	0.527203	0.473125	0.767607
81	H	0.548916	0.451656	0.63313
82	H	0.574432	0.426437	0.570794
83	H	0.598034	0.403117	0.594269
84	H	0.622901	0.378539	0.709977
85	H	0.491602	0.5083	0.252973
86	C	0.38603	0.772099	0
87	C	0.396625	0.793324	0.880355
88	C	0.408573	0.817258	0.986287
89	C	0.406656	0.813417	0.182607
90	C	0.416458	0.833052	0.33251
91	C	0.414545	0.829218	0.528016
92	C	0.426505	0.853178	0.633345
93	C	0.437475	0.875156	0.517683
94	C	0.451027	0.902303	0.580027
95	C	0.455488	0.911241	0.766913
96	C	0.469429	0.939171	0.78102
97	C	0.475326	0.950984	0.604312
98	C	0.490568	0.981518	0.569627
99	C	0.499622	0.999658	0.714967
100	S	0.515309	0.031084	0.631092
101	C	0.510316	0.021081	0.396394
102	C	0.519346	0.039172	0.236192
103	C	0.5161	0.032673	0.044385
104	C	0.527267	0.055044	0.921932
105	C	0.538982	0.078508	0.020874
106	C	0.552037	0.10466	0.938939
107	C	0.555179	0.110952	0.74676
108	C	0.568949	0.138538	0.712681
109	C	0.576248	0.15316	0.879029
110	C	0.59042	0.181553	0.893601
111	C	0.599288	0.199319	0.743319
112	C	0.612616	0.226017	0.804797
113	C	0.613422	0.227631	0
114	S	0.598664	0.198064	0.108632
115	S	0.566058	0.132749	0.073867
116	S	0.536045	0.07262	0.262265
117	C	0.496764	0.993932	0.386646
118	S	0.464067	0.928427	0.424728
119	S	0.43289	0.865972	0.281763
120	S	0.390143	0.780335	0.233808
121	H	0.396013	0.792098	0.72591
122	H	0.41813	0.836405	0.919268
123	H	0.405003	0.8101	0.595435
124	H	0.426861	0.853888	0.787949
125	H	0.449112	0.898468	0.89047
126	H	0.474656	0.949643	0.915497
127	H	0.497969	0.996346	0.867394
128	H	0.506142	0.012726	0.991496
129	H	0.526557	0.053624	0.767607
130	H	0.547991	0.096553	0.63313
131	H	0.573168	0.146989	0.570794
132	H	0.59645	0.193634	0.594269
133	H	0.620987	0.242789	0.709977
134	H	0.49144	0.983265	0.252973
135	C	0.228791	0.613612	0
136	C	0.207458	0.602999	0.880355
137	C	0.183402	0.591032	0.986287
138	C	0.187263	0.592954	0.182607
139	C	0.167527	0.583136	0.33251
140	C	0.171381	0.585054	0.528016
141	C	0.147299	0.573075	0.633345
142	C	0.125209	0.562085	0.517683
143	C	0.097923	0.548511	0.580027
144	C	0.08894	0.544042	0.766913
145	C	0.060868	0.530076	0.78102
146	C	0.048994	0.524169	0.604312
147	C	0.018305	0.508902	0.569627
148	C	7.3e-05	0.499832	0.714967
149	S	0.968486	0.484118	0.631092
150	C	0.97854	0.48912	0.396394
151	C	0.960357	0.480074	0.236192
152	C	0.966889	0.483322	0.044385
153	C	0.944405	0.472136	0.921932
154	C	0.920821	0.460406	0.020874
155	C	0.894535	0.44733	0.938939
156	C	0.888211	0.444185	0.74676
157	C	0.860485	0.430393	0.712681
158	C	0.845788	0.423081	0.879029
159	C	0.817251	0.408884	0.893601
160	C	0.799394	0.400001	0.743319
161	C	0.77256	0.386652	0.804797
162	C	0.770938	0.385846	0
163	S	0.800655	0.40063	0.108632
164	S	0.866303	0.433286	0.073867
165	S	0.926738	0.463352	0.262265
166	C	0.005828	0.502695	0.386646
167	S	0.071667	0.535449	0.424728
168	S	0.13444	0.566675	0.281763
169	S	0.220513	0.609495	0.233808
170	H	0.20869	0.603611	0.72591
171	H	0.164157	0.581458	0.919268
172	H	0.190596	0.594614	0.595435
173	H	0.146585	0.57272	0.787949
174	H	0.101779	0.550428	0.89047
175	H	0.050343	0.52484	0.915497
176	H	0.003401	0.501488	0.867394
177	H	0.986938	0.493294	0.991496
178	H	0.945831	0.472845	0.767607
179	H	0.902684	0.451385	0.63313
180	H	0.851991	0.426167	0.570794
181	H	0.805108	0.402842	0.594269
182	H	0.755703	0.378265	0.709977
183	H	0.016549	0.508029	0.252973
