data_C78H36N12O6S12_2023-05-12_17:27:07
#******************************************
#
# CIF file created by Zeo++
# Zeo++ is an open source package to
# analyze microporous materials
#
#*******************************************

_cell_length_a		49.745   
_cell_length_b		50.0435   
_cell_length_c		7   
_cell_angle_alpha		90   
_cell_angle_beta		90   
_cell_angle_gamma		119.739   

_symmetry_space_group_name_H-M		'P1'
_symmetry_Int_Tables_number		1
_symmetry_cell_setting		Monoclinic

loop_
_symmetry_equiv_pos_as_xyz
'+x,+y,+z'

loop_
_atom_site_label
_atom_site_type_symbol
_atom_site_fract_x
_atom_site_fract_y
_atom_site_fract_z
1	C	0.36449	0.673179	0.999995
2	O	0.391805	0.677968	0.999991
3	C	0.339804	0.641178	0.999998
4	C	0.344604	0.61759	0
5	N	0.375181	0.623106	0
6	C	0.308214	0.635498	3e-06
7	O	0.286028	0.607916	5e-06
8	C	0.300619	0.660108	6e-06
9	C	0.271549	0.654169	5e-06
10	N	0.247529	0.622788	0
11	C	0.326493	0.691854	4e-06
12	O	0.320457	0.713136	7e-06
13	C	0.358592	0.69896	0.999999
14	C	0.381401	0.727921	0.999998
15	N	0.37681	0.753629	0
16	H	0.325706	0.594628	1e-06
17	H	0.265413	0.671797	8e-06
18	H	0.404477	0.732056	0.999997
19	C	0.63551	0.326821	0.999995
20	O	0.608195	0.322032	0.999991
21	C	0.660196	0.358822	0.999998
22	C	0.655396	0.38241	0
23	N	0.624819	0.376894	0
24	C	0.691786	0.364502	3e-06
25	O	0.713972	0.392084	5e-06
26	C	0.699381	0.339892	6e-06
27	C	0.728451	0.345831	5e-06
28	N	0.752471	0.377212	0
29	C	0.673507	0.308146	4e-06
30	O	0.679543	0.286864	7e-06
31	C	0.641408	0.30104	0.999999
32	C	0.618599	0.272079	0.999998
33	N	0.62319	0.246371	0
34	H	0.674294	0.405372	1e-06
35	H	0.734587	0.328203	8e-06
36	H	0.595523	0.267944	0.999997
37	C	0.393848	0.604695	0
38	C	0.407673	0.591059	0.901089
39	C	0.420761	0.578151	0.027684
40	C	0.438403	0.56075	0.963788
41	C	0.443274	0.555943	0.776451
42	C	0.459868	0.539577	0.761273
43	C	0.467337	0.532213	0.936894
44	C	0.484216	0.515565	0.97476
45	C	0.491029	0.508848	0.155171
46	N	0.506724	0.493368	0.184295
47	C	0.515782	0.484433	0.025243
48	C	0.532661	0.467785	0.063108
49	C	0.54013	0.460421	0.238729
50	C	0.556723	0.444055	0.223551
51	C	0.561596	0.439248	0.036214
52	C	0.579238	0.421848	0.972318
53	C	0.583865	0.417284	0.783341
54	S	0.603784	0.397638	0.759907
55	C	0.606152	0.395305	0
56	C	0.592327	0.40894	0.098912
57	S	0.546189	0.454442	0.882074
58	C	0.508968	0.49115	0.844832
59	N	0.493273	0.506629	0.815709
60	S	0.45381	0.545556	0.117928
61	C	0.416135	0.582717	0.21666
62	S	0.396216	0.602363	0.240093
63	H	0.408352	0.590387	0.746729
64	H	0.435531	0.563578	0.654305
65	H	0.466147	0.533381	0.626753
66	H	0.48419	0.515596	0.285439
67	H	0.533849	0.466615	0.373249
68	H	0.564466	0.436419	0.345697
69	H	0.576683	0.424366	0.656376
70	H	0.591647	0.409612	0.253272
71	H	0.515808	0.484401	0.714564
72	H	0.423317	0.575635	0.343626
73	C	0.395185	0.790451	0
74	C	0.408795	0.817722	0.901089
75	C	0.421678	0.843538	0.027684
76	C	0.439045	0.878339	0.963788
77	C	0.443843	0.887951	0.776451
78	C	0.460178	0.920683	0.761273
79	C	0.467528	0.935413	0.936894
80	C	0.484143	0.968709	0.97476
81	C	0.490847	0.982145	0.155171
82	N	0.506297	0.013105	0.184295
83	C	0.515215	0.030974	0.025243
84	C	0.531831	0.064269	0.063108
85	C	0.539181	0.079	0.238729
86	C	0.555515	0.111731	0.223551
87	C	0.560312	0.121343	0.036214
88	C	0.577679	0.156144	0.972318
89	C	0.582234	0.165272	0.783341
90	S	0.601842	0.204564	0.759907
91	C	0.604171	0.209232	0
92	C	0.590561	0.18196	0.098912
93	S	0.545147	0.090954	0.882074
94	C	0.508511	0.017537	0.844832
95	N	0.493062	0.986577	0.815709
96	S	0.45421	0.908729	0.117928
97	C	0.417121	0.83441	0.21666
98	S	0.397513	0.795118	0.240093
99	H	0.409466	0.819064	0.746729
100	H	0.436223	0.872679	0.654305
101	H	0.466361	0.933071	0.626753
102	H	0.484112	0.968652	0.285439
103	H	0.532998	0.066611	0.373249
104	H	0.563136	0.127004	0.345697
105	H	0.575166	0.151106	0.656376
106	H	0.589891	0.180619	0.253272
107	H	0.515246	0.031031	0.714564
108	H	0.424189	0.848576	0.343626
109	C	0.210486	0.604377	0
110	C	0.183051	0.590742	0.901089
111	C	0.157081	0.577834	0.027684
112	C	0.122071	0.560434	0.963788
113	C	0.112401	0.555629	0.776451
114	C	0.079474	0.539263	0.761273
115	C	0.064655	0.531897	0.936894
116	C	0.03116	0.515249	0.97476
117	C	0.017643	0.508529	0.155171
118	N	0.986498	0.49305	0.184295
119	C	0.968522	0.484117	0.025243
120	C	0.935027	0.467469	0.063108
121	C	0.920209	0.460103	0.238729
122	C	0.887281	0.443737	0.223551
123	C	0.877612	0.438931	0.036214
124	C	0.842602	0.421531	0.972318
125	C	0.83342	0.416968	0.783341
126	S	0.793893	0.397322	0.759907
127	C	0.789197	0.394987	0
128	C	0.816631	0.408622	0.098912
129	S	0.908183	0.454127	0.882074
130	C	0.98204	0.490836	0.844832
131	N	0.013185	0.506317	0.815709
132	S	0.091499	0.545238	0.117928
133	C	0.166263	0.582396	0.21666
134	S	0.20579	0.602042	0.240093
135	H	0.181701	0.590072	0.746729
136	H	0.127765	0.563266	0.654305
137	H	0.067011	0.53307	0.626753
138	H	0.031218	0.515275	0.285439
139	H	0.932672	0.466297	0.373249
140	H	0.871917	0.4361	0.345697
141	H	0.84767	0.424051	0.656376
142	H	0.817981	0.409293	0.253272
143	H	0.968465	0.484091	0.714564
144	H	0.152013	0.575313	0.343626
