data_C90H36N12O6S18_2023-05-11_02:40:51
#******************************************
#
# CIF file created by Zeo++
# Zeo++ is an open source package to
# analyze microporous materials
#
#*******************************************

_cell_length_a		50.4356   
_cell_length_b		50.734   
_cell_length_c		7   
_cell_angle_alpha		90   
_cell_angle_beta		90   
_cell_angle_gamma		119.743   

_symmetry_space_group_name_H-M		'P1'
_symmetry_Int_Tables_number		1
_symmetry_cell_setting		Monoclinic

loop_
_symmetry_equiv_pos_as_xyz
'+x,+y,+z'

loop_
_atom_site_label
_atom_site_type_symbol
_atom_site_fract_x
_atom_site_fract_y
_atom_site_fract_z
1	C	0.364064	0.67309	0.999995
2	O	0.391006	0.677814	0.999991
3	C	0.339713	0.641524	0.999998
4	C	0.344446	0.618257	0
5	N	0.374605	0.623698	0
6	C	0.308556	0.635921	3e-06
7	O	0.286671	0.608714	5e-06
8	C	0.301067	0.660197	6e-06
9	C	0.272394	0.654339	5e-06
10	N	0.2487	0.623384	0
11	C	0.326589	0.691512	4e-06
12	O	0.320637	0.712505	7e-06
13	C	0.358248	0.698522	0.999999
14	C	0.380747	0.727089	0.999998
15	N	0.376221	0.752448	0
16	H	0.325805	0.595606	1e-06
17	H	0.266343	0.671728	8e-06
18	H	0.403507	0.731168	0.999997
19	C	0.635936	0.32691	0.999995
20	O	0.608994	0.322186	0.999991
21	C	0.660287	0.358476	0.999998
22	C	0.655554	0.381743	0
23	N	0.625395	0.376302	0
24	C	0.691444	0.364079	3e-06
25	O	0.713329	0.391286	5e-06
26	C	0.698933	0.339803	6e-06
27	C	0.727606	0.345661	5e-06
28	N	0.7513	0.376616	0
29	C	0.673411	0.308488	4e-06
30	O	0.679363	0.287495	7e-06
31	C	0.641752	0.301478	0.999999
32	C	0.619253	0.272911	0.999998
33	N	0.623779	0.247552	0
34	H	0.674195	0.404394	1e-06
35	H	0.733657	0.328272	8e-06
36	H	0.596493	0.268832	0.999997
37	C	0.606985	0.394463	0
38	C	0.618856	0.382753	0.12906
39	S	0.612078	0.38944	0.358589
40	C	0.593321	0.407944	0.283504
41	C	0.579029	0.422043	0.422439
42	C	0.580374	0.420716	0.618339
43	S	0.562881	0.437974	0.729561
44	C	0.553065	0.447657	0.516211
45	C	0.536417	0.464079	0.512277
46	N	0.527993	0.472388	0.668727
47	C	0.512514	0.487658	0.623705
48	C	0.500279	0.499726	0.753937
49	C	0.485112	0.514688	0.688887
50	C	0.481759	0.517997	0.494361
51	C	0.493996	0.505927	0.364109
52	C	0.509164	0.490964	0.42919
53	S	0.526085	0.474274	0.302446
54	N	0.466271	0.533275	0.449214
55	C	0.45787	0.54156	0.606133
56	C	0.441243	0.557961	0.596102
57	C	0.432633	0.566456	0.429434
58	C	0.416436	0.582432	0.462741
59	C	0.40367	0.595025	0.302706
60	C	0.406753	0.591985	0.109269
61	C	0.393015	0.605537	0
62	C	0.379921	0.618452	0.109356
63	S	0.3843	0.614131	0.347724
64	C	0.413149	0.585673	0.65514
65	S	0.429416	0.569626	0.792351
66	S	0.468198	0.531372	0.815623
67	C	0.563273	0.437587	0.364033
68	C	0.592241	0.409009	0.08677
69	H	0.631095	0.370679	0.101347
70	H	0.590728	0.410503	0.703987
71	H	0.502796	0.497242	0.905997
72	H	0.491487	0.508403	0.212066
73	H	0.437978	0.561184	0.289563
74	H	0.418223	0.580672	0.049011
75	H	0.368064	0.630147	0.062588
76	H	0.402014	0.596656	0.724064
77	H	0.5596	0.441209	0.216273
78	H	0.581493	0.419611	0.008754
79	C	0.605018	0.210916	0
80	C	0.616706	0.234337	0.12906
81	S	0.610031	0.220964	0.358589
82	C	0.591563	0.183957	0.283504
83	C	0.577491	0.15576	0.422439
84	C	0.578815	0.158413	0.618339
85	S	0.56159	0.123898	0.729561
86	C	0.551926	0.104533	0.516211
87	C	0.535534	0.071688	0.512277
88	N	0.527242	0.05507	0.668727
89	C	0.512001	0.02453	0.623705
90	C	0.499956	0.000393	0.753937
91	C	0.485022	0.970469	0.688887
92	C	0.48172	0.963853	0.494361
93	C	0.493767	0.987994	0.364109
94	C	0.508701	0.01792	0.42919
95	S	0.52536	0.051301	0.302446
96	N	0.466471	0.933295	0.449214
97	C	0.458201	0.916724	0.606133
98	C	0.441832	0.883921	0.596102
99	C	0.433353	0.866932	0.429434
100	C	0.417408	0.834978	0.462741
101	C	0.404839	0.809793	0.302706
102	C	0.407873	0.815874	0.109269
103	C	0.394347	0.78877	0
104	C	0.381457	0.762938	0.109356
105	S	0.385769	0.771579	0.347724
106	C	0.414173	0.828495	0.65514
107	S	0.430189	0.860588	0.792351
108	S	0.468371	0.9371	0.815623
109	C	0.561977	0.124673	0.364033
110	C	0.5905	0.181826	0.08677
111	H	0.628757	0.258484	0.101347
112	H	0.589009	0.17884	0.703987
113	H	0.502435	0.00536	0.905997
114	H	0.491295	0.983042	0.212066
115	H	0.438615	0.877477	0.289563
116	H	0.419164	0.838501	0.049011
117	H	0.369783	0.739546	0.062588
118	H	0.403211	0.806528	0.724064
119	H	0.558361	0.117428	0.216273
120	H	0.579918	0.160621	0.008754
121	C	0.787523	0.39415	0
122	C	0.763964	0.382439	0.12906
123	S	0.777417	0.389125	0.358589
124	C	0.814642	0.407629	0.283504
125	C	0.843006	0.421727	0.422439
126	C	0.840337	0.4204	0.618339
127	S	0.875055	0.437657	0.729561
128	C	0.894535	0.447339	0.516211
129	C	0.927574	0.463762	0.512277
130	N	0.944291	0.472072	0.668727
131	C	0.975011	0.487341	0.623705
132	C	0.999291	0.499411	0.753937
133	C	0.029391	0.514373	0.688887
134	C	0.036047	0.51768	0.494361
135	C	0.011763	0.505609	0.364109
136	C	0.98166	0.490646	0.42919
137	S	0.948082	0.473954	0.302446
138	N	0.066784	0.532959	0.449214
139	C	0.083454	0.541245	0.606133
140	C	0.116451	0.557647	0.596102
141	C	0.13354	0.566141	0.429434
142	C	0.165682	0.582119	0.462741
143	C	0.191017	0.594712	0.302706
144	C	0.1849	0.591671	0.109269
145	C	0.212164	0.605223	0
146	C	0.238148	0.61814	0.109356
147	S	0.229456	0.61382	0.347724
148	C	0.172204	0.585361	0.65514
149	S	0.139921	0.569315	0.792351
150	S	0.062957	0.531058	0.815623
151	C	0.874276	0.43727	0.364033
152	C	0.816785	0.408694	0.08677
153	H	0.739674	0.370366	0.101347
154	H	0.819789	0.410186	0.703987
155	H	0.994294	0.496928	0.905997
156	H	0.016744	0.508084	0.212066
157	H	0.122933	0.560868	0.289563
158	H	0.162139	0.580356	0.049011
159	H	0.261679	0.629836	0.062588
160	H	0.194301	0.596346	0.724064
161	H	0.881564	0.440893	0.216273
162	H	0.838115	0.419296	0.008754
