data_C108H48N6O6S24_2023-05-15_07:47:28
#******************************************
#
# CIF file created by Zeo++
# Zeo++ is an open source package to
# analyze microporous materials
#
#*******************************************

_cell_length_a		64.4801   
_cell_length_b		64.7784   
_cell_length_c		7   
_cell_angle_alpha		90   
_cell_angle_beta		90   
_cell_angle_gamma		119.799   

_symmetry_space_group_name_H-M		'P1'
_symmetry_Int_Tables_number		1
_symmetry_cell_setting		Monoclinic

loop_
_symmetry_equiv_pos_as_xyz
'+x,+y,+z'

loop_
_atom_site_label
_atom_site_type_symbol
_atom_site_fract_x
_atom_site_fract_y
_atom_site_fract_z
1	C	0.357376	0.6717	0.999995
2	O	0.378454	0.675402	0.999991
3	C	0.338302	0.646964	0.999998
4	C	0.341983	0.628731	0
5	N	0.365578	0.632995	0
6	C	0.313926	0.642573	3e-06
7	O	0.296784	0.621253	5e-06
8	C	0.308089	0.661597	6e-06
9	C	0.285657	0.657006	5e-06
10	N	0.267096	0.632749	0
11	C	0.32808	0.686136	4e-06
12	O	0.323443	0.702587	7e-06
13	C	0.352849	0.691629	0.999999
14	C	0.370473	0.714015	0.999998
15	N	0.366955	0.733887	0
16	H	0.327382	0.610981	1e-06
17	H	0.280939	0.670633	8e-06
18	H	0.388279	0.717212	0.999997
19	C	0.642624	0.3283	0.999995
20	O	0.621546	0.324598	0.999991
21	C	0.661698	0.353036	0.999998
22	C	0.658017	0.371269	0
23	N	0.634422	0.367005	0
24	C	0.686074	0.357427	3e-06
25	O	0.703216	0.378747	5e-06
26	C	0.691911	0.338403	6e-06
27	C	0.714343	0.342994	5e-06
28	N	0.732904	0.367251	0
29	C	0.67192	0.313864	4e-06
30	O	0.676557	0.297413	7e-06
31	C	0.647151	0.308371	0.999999
32	C	0.629527	0.285985	0.999998
33	N	0.633045	0.266113	0
34	H	0.672618	0.389019	1e-06
35	H	0.719061	0.329367	8e-06
36	H	0.611721	0.282788	0.999997
37	C	0.620038	0.381237	0
38	C	0.607798	0.386866	0.868939
39	C	0.600203	0.402302	0.949387
40	C	0.585713	0.412356	0.840176
41	C	0.578623	0.407366	0.652388
42	C	0.565793	0.418888	0.591122
43	C	0.563312	0.432339	0.733513
44	C	0.551443	0.44627	0.716949
45	C	0.5463	0.454154	0.549688
46	C	0.534277	0.467328	0.581709
47	C	0.530271	0.469337	0.773171
48	C	0.518584	0.481358	0.858408
49	C	0.517075	0.485422	0.050715
50	C	0.504176	0.497737	0.082243
51	C	0.496289	0.502727	0.91789
52	C	0.483393	0.515044	0.949416
53	C	0.481889	0.519114	0.14172
54	C	0.470212	0.531146	0.226953
55	C	0.466339	0.533286	0.418478
56	C	0.454284	0.546431	0.450464
57	C	0.448984	0.554163	0.283119
58	C	0.437045	0.568028	0.266491
59	C	0.434579	0.581514	0.408659
60	C	0.421668	0.592954	0.347394
61	C	0.414504	0.587867	0.159827
62	C	0.399915	0.597814	0.050673
63	C	0.392919	0.592449	0.862295
64	S	0.377341	0.605921	0.784062
65	C	0.379962	0.618763	0
66	C	0.392295	0.613239	0.130953
67	S	0.423362	0.569479	0.060346
68	S	0.458972	0.545323	0.08981
69	S	0.496062	0.50799	0.2825
70	S	0.504402	0.492473	0.71763
71	S	0.541347	0.455003	0.910217
72	S	0.576883	0.430757	0.939858
73	C	0.607124	0.40757	0.137992
74	S	0.622603	0.393996	0.216228
75	H	0.604485	0.380281	0.723703
76	H	0.582256	0.396051	0.561068
77	H	0.558622	0.417121	0.448334
78	H	0.551014	0.450873	0.408894
79	H	0.528958	0.474957	0.467109
80	H	0.524696	0.480045	0.164985
81	H	0.475775	0.520422	0.835136
82	H	0.471778	0.525774	0.533162
83	H	0.449664	0.549802	0.591314
84	H	0.441815	0.583363	0.551292
85	H	0.418033	0.60428	0.43856
86	H	0.396055	0.581319	0.765024
87	H	0.395655	0.619888	0.276004
88	H	0.603985	0.418683	0.235427
89	C	0.618338	0.237404	0
90	C	0.612744	0.219638	0.868939
91	C	0.597298	0.19672	0.949387
92	C	0.587276	0.172312	0.840176
93	C	0.592309	0.17024	0.652388
94	C	0.580808	0.146019	0.591122
95	C	0.567332	0.130158	0.733513
96	C	0.553413	0.104492	0.716949
97	C	0.545529	0.091532	0.549688
98	C	0.53237	0.066467	0.581709
99	C	0.530371	0.060486	0.773171
100	C	0.518367	0.036904	0.858408
101	C	0.514298	0.031358	0.050715
102	C	0.502004	0.00628	0.082243
103	C	0.497033	0.993475	0.91789
104	C	0.484736	0.968397	0.949416
105	C	0.480662	0.962849	0.14172
106	C	0.468645	0.939266	0.226953
107	C	0.466515	0.933287	0.418478
108	C	0.453385	0.908221	0.450464
109	C	0.445654	0.895255	0.283119
110	C	0.431801	0.869586	0.266491
111	C	0.41829	0.853705	0.408659
112	C	0.406874	0.829486	0.347394
113	C	0.412002	0.827436	0.159827
114	C	0.402088	0.803035	0.050673
115	C	0.407496	0.801429	0.862295
116	S	0.394052	0.772538	0.784062
117	C	0.381165	0.76235	0
118	C	0.386654	0.780104	0.130953
119	S	0.430403	0.854549	0.060346
120	S	0.454477	0.913981	0.08981
121	S	0.491757	0.988008	0.2825
122	S	0.50728	0.011747	0.71763
123	S	0.544699	0.085766	0.910217
124	S	0.568864	0.145215	0.939858
125	C	0.591988	0.198348	0.137992
126	S	0.605535	0.227244	0.216228
127	H	0.619359	0.222906	0.723703
128	H	0.603638	0.185118	0.561068
129	H	0.582609	0.140655	0.448334
130	H	0.5488	0.099482	0.408894
131	H	0.524743	0.053585	0.467109
132	H	0.519658	0.044283	0.164985
133	H	0.479374	0.955473	0.835136
134	H	0.474025	0.946172	0.533162
135	H	0.450024	0.900274	0.591314
136	H	0.416407	0.859051	0.551292
137	H	0.395533	0.814595	0.43856
138	H	0.418642	0.815629	0.765024
139	H	0.379974	0.776819	0.276004
140	H	0.58086	0.184162	0.235427
141	C	0.761253	0.380991	0
142	C	0.779088	0.393127	0.868939
143	C	0.802127	0.400609	0.949387
144	C	0.82664	0.414963	0.840176
145	C	0.828697	0.422026	0.652388
146	C	0.853028	0.434724	0.591122
147	C	0.868985	0.437135	0.733513
148	C	0.894773	0.448869	0.716949
149	C	0.907799	0.453945	0.549688
150	C	0.932982	0.465836	0.581709
151	C	0.938987	0.469808	0.773171
152	C	0.962679	0.481369	0.858408
153	C	0.968256	0.482851	0.050715
154	C	0.993449	0.495615	0.082243
155	C	0.006307	0.50343	0.91789
156	C	0.0315	0.516191	0.949416
157	C	0.037079	0.517668	0.14172
158	C	0.060772	0.529219	0.226953
159	C	0.066775	0.533058	0.418478
160	C	0.091959	0.544979	0.450464
161	C	0.104991	0.550213	0.283119
162	C	0.130783	0.562017	0.266491
163	C	0.14676	0.564412	0.408659
164	C	0.171087	0.577191	0.347394
165	C	0.173122	0.584328	0.159827
166	C	0.197626	0.598782	0.050673
167	C	0.199215	0.605753	0.862295
168	S	0.228236	0.621173	0.784062
169	C	0.238502	0.618517	0
170	C	0.220679	0.606288	0.130953
171	S	0.145864	0.575604	0.060346
172	S	0.08618	0.540328	0.08981
173	S	0.01181	0.503634	0.2825
174	S	0.987946	0.495411	0.71763
175	S	0.913584	0.458863	0.910217
176	S	0.853882	0.423659	0.939858
177	C	0.800517	0.393713	0.137992
178	S	0.771491	0.378392	0.216228
179	H	0.775785	0.396445	0.723703
180	H	0.813734	0.418463	0.561068
181	H	0.858398	0.441856	0.448334
182	H	0.899814	0.449276	0.408894
183	H	0.945929	0.471089	0.467109
184	H	0.955275	0.475303	0.164985
185	H	0.04448	0.523736	0.835136
186	H	0.053826	0.527685	0.533162
187	H	0.099941	0.549556	0.591314
188	H	0.141407	0.557217	0.551292
189	H	0.186063	0.580757	0.43856
190	H	0.184933	0.602683	0.765024
191	H	0.224	0.602924	0.276004
192	H	0.814785	0.396786	0.235427
