data_C72H36N6O6S12_2023-05-15_09:18:23
#******************************************
#
# CIF file created by Zeo++
# Zeo++ is an open source package to
# analyze microporous materials
#
#*******************************************

_cell_length_a		40.4955   
_cell_length_b		40.794   
_cell_length_c		7   
_cell_angle_alpha		90   
_cell_angle_beta		90   
_cell_angle_gamma		119.68   

_symmetry_space_group_name_H-M		'P1'
_symmetry_Int_Tables_number		1
_symmetry_cell_setting		Monoclinic

loop_
_symmetry_equiv_pos_as_xyz
'+x,+y,+z'

loop_
_atom_site_label
_atom_site_type_symbol
_atom_site_fract_x
_atom_site_fract_y
_atom_site_fract_z
1	C	0.371596	0.674651	0.999995
2	O	0.405144	0.680522	0.999991
3	C	0.341319	0.635417	0.999998
4	C	0.34725	0.606498	0
5	N	0.384803	0.613261	0
6	C	0.302522	0.628453	3e-06
7	O	0.275309	0.594638	5e-06
8	C	0.293156	0.658626	6e-06
9	C	0.257455	0.651345	5e-06
10	N	0.227994	0.612871	0
11	C	0.324894	0.697546	4e-06
12	O	0.317448	0.723639	7e-06
13	C	0.364313	0.706259	0.999999
14	C	0.39229	0.741765	0.999998
15	N	0.386612	0.773283	0
16	H	0.324069	0.578346	1e-06
17	H	0.249892	0.672957	8e-06
18	H	0.42063	0.746835	0.999997
19	C	0.628404	0.325349	0.999995
20	O	0.594856	0.319478	0.999991
21	C	0.658681	0.364583	0.999998
22	C	0.65275	0.393502	0
23	N	0.615197	0.386739	0
24	C	0.697478	0.371547	3e-06
25	O	0.724691	0.405362	5e-06
26	C	0.706844	0.341374	6e-06
27	C	0.742545	0.348655	5e-06
28	N	0.772006	0.387129	0
29	C	0.675106	0.302454	4e-06
30	O	0.682552	0.276361	7e-06
31	C	0.635687	0.293741	0.999999
32	C	0.60771	0.258235	0.999998
33	N	0.613388	0.226717	0
34	H	0.675931	0.421654	1e-06
35	H	0.750108	0.327043	8e-06
36	H	0.57937	0.253165	0.999997
37	C	0.407761	0.590689	0
38	C	0.431074	0.623401	0.095989
39	S	0.456959	0.616145	0.266634
40	C	0.43677	0.568864	0.212447
41	C	0.446905	0.543741	0.309844
42	C	0.441602	0.509594	0.242613
43	C	0.454337	0.491438	0.373546
44	C	0.469684	0.512082	0.538518
45	C	0.485076	0.504	0.703063
46	C	0.508931	0.490018	0.703847
47	C	0.525769	0.483357	0.540651
48	C	0.542634	0.505455	0.381488
49	C	0.55649	0.488422	0.24985
50	C	0.550501	0.453656	0.310836
51	C	0.561432	0.429352	0.211184
52	C	0.588718	0.440085	0.06913
53	C	0.592239	0.409311	0
54	C	0.568036	0.375797	0.087254
55	S	0.540686	0.381619	0.254887
56	S	0.528522	0.442693	0.529728
57	S	0.466872	0.552749	0.533498
58	C	0.410779	0.559369	0.064799
59	H	0.434341	0.651119	0.075345
60	H	0.4292	0.497806	0.104946
61	H	0.452344	0.464334	0.346987
62	H	0.476111	0.509216	0.841017
63	H	0.516677	0.483603	0.842202
64	H	0.544924	0.532813	0.359507
65	H	0.570146	0.50142	0.116112
66	H	0.605501	0.468818	0.018443
67	H	0.564898	0.348254	0.061848
68	H	0.394547	0.531117	0.007185
69	C	0.409131	0.818427	0
70	C	0.376134	0.808994	0.095989
71	S	0.383253	0.841816	0.266634
72	C	0.43086	0.868817	0.212447
73	C	0.456022	0.903807	0.309844
74	C	0.490345	0.932488	0.242613
75	C	0.508495	0.963128	0.373546
76	C	0.487667	0.957803	0.538518
77	C	0.495684	0.981064	0.703063
78	C	0.50957	0.018561	0.703847
79	C	0.516151	0.04184	0.540651
80	C	0.493852	0.036571	0.381488
81	C	0.510867	0.067206	0.24985
82	C	0.545816	0.095823	0.310836
83	C	0.570151	0.130787	0.211184
84	C	0.559199	0.147123	0.06913
85	C	0.590077	0.181183	0
86	C	0.623886	0.190533	0.087254
87	S	0.618215	0.157685	0.254887
88	S	0.556966	0.084968	0.529728
89	S	0.446849	0.914615	0.533498
90	C	0.440561	0.852533	0.064799
91	H	0.348279	0.784687	0.075345
92	H	0.502262	0.931927	0.104946
93	H	0.535724	0.988086	0.346987
94	H	0.490503	0.96701	0.841017
95	H	0.515962	0.032599	0.842202
96	H	0.466366	0.011655	0.359507
97	H	0.497728	0.067805	0.116112
98	H	0.530238	0.135182	0.018443
99	H	0.651564	0.214794	0.061848
100	H	0.469035	0.864542	0.007185
101	C	0.182518	0.590299	0
102	C	0.192203	0.567021	0.095989
103	S	0.159198	0.541454	0.266634
104	C	0.13178	0.561735	0.212447
105	C	0.096483	0.551867	0.309844
106	C	0.067462	0.557333	0.242613
107	C	0.036578	0.544849	0.373546
108	C	0.042059	0.52953	0.538518
109	C	0.01865	0.514352	0.703063
110	C	0.980908	0.490836	0.703847
111	C	0.95749	0.474218	0.540651
112	C	0.962924	0.457388	0.381488
113	C	0.932053	0.443787	0.24985
114	C	0.903093	0.449936	0.310836
115	C	0.867826	0.439276	0.211184
116	C	0.851493	0.412207	0.06913
117	C	0.817093	0.408921	0
118	C	0.807488	0.433085	0.087254
119	S	0.840508	0.460111	0.254887
120	S	0.913921	0.471755	0.529728
121	S	0.085689	0.532052	0.533498
122	C	0.148069	0.587514	0.064799
123	H	0.21679	0.563609	0.075345
124	H	0.067948	0.569682	0.104946
125	H	0.011341	0.546995	0.346987
126	H	0.032795	0.523189	0.841017
127	H	0.966771	0.483213	0.842202
128	H	0.98812	0.454947	0.359507
129	H	0.931535	0.430191	0.116112
130	H	0.86367	0.395416	0.018443
131	H	0.782948	0.436367	0.061848
132	H	0.135827	0.603756	0.007185
