data_C90H48N12O6S9_2023-05-11_10:17:20
#******************************************
#
# CIF file created by Zeo++
# Zeo++ is an open source package to
# analyze microporous materials
#
#*******************************************

_cell_length_a		47.9296   
_cell_length_b		48.228   
_cell_length_c		7   
_cell_angle_alpha		90   
_cell_angle_beta		90   
_cell_angle_gamma		119.73   

_symmetry_space_group_name_H-M		'P1'
_symmetry_Int_Tables_number		1
_symmetry_cell_setting		Monoclinic

loop_
_symmetry_equiv_pos_as_xyz
'+x,+y,+z'

loop_
_atom_site_label
_atom_site_type_symbol
_atom_site_fract_x
_atom_site_fract_y
_atom_site_fract_z
1	C	0.365668	0.673423	0.999995
2	O	0.394018	0.678392	0.999991
3	C	0.340054	0.640221	0.999998
4	C	0.345041	0.615748	0
5	N	0.376775	0.621471	0
6	C	0.307269	0.634328	3e-06
7	O	0.284248	0.605711	5e-06
8	C	0.299381	0.659862	6e-06
9	C	0.269211	0.6537	5e-06
10	N	0.244287	0.621141	0
11	C	0.326229	0.692799	4e-06
12	O	0.31996	0.714881	7e-06
13	C	0.359542	0.700172	0.999999
14	C	0.383209	0.73022	0.999998
15	N	0.378439	0.756893	0
16	H	0.325432	0.591923	1e-06
17	H	0.262839	0.67199	8e-06
18	H	0.407158	0.734511	0.999997
19	C	0.634332	0.326577	0.999995
20	O	0.605982	0.321608	0.999991
21	C	0.659946	0.359779	0.999998
22	C	0.654959	0.384252	0
23	N	0.623225	0.378529	0
24	C	0.692731	0.365672	3e-06
25	O	0.715752	0.394289	5e-06
26	C	0.700619	0.340138	6e-06
27	C	0.730789	0.3463	5e-06
28	N	0.755713	0.378859	0
29	C	0.673771	0.307201	4e-06
30	O	0.68004	0.285119	7e-06
31	C	0.640458	0.299828	0.999999
32	C	0.616791	0.26978	0.999998
33	N	0.621561	0.243107	0
34	H	0.674568	0.408077	1e-06
35	H	0.737161	0.32801	8e-06
36	H	0.592842	0.265489	0.999997
37	C	0.396153	0.602369	0
38	C	0.413225	0.586441	0.001091
39	C	0.418404	0.578951	0.191491
40	C	0.435322	0.56251	0.238769
41	C	0.448558	0.549951	0.123383
42	C	0.463531	0.535489	0.235039
43	C	0.480729	0.519466	0.165602
44	C	0.478011	0.491815	0.252661
45	C	0.494228	0.475887	0.186739
46	C	0.514768	0.4859	0.026482
47	C	0.531122	0.468753	0.962593
48	C	0.53368	0.461558	0.78004
49	C	0.551758	0.443574	0.769003
50	C	0.558974	0.441435	0.976045
51	C	0.576349	0.425784	0.030861
52	C	0.584139	0.423417	0.218192
53	S	0.605047	0.40323	0.239033
54	C	0.603847	0.397631	0
55	C	0.588061	0.410561	0.90365
56	C	0.54683	0.456046	0.083111
57	C	0.518701	0.513779	0.93112
58	N	0.537191	0.528151	0.777537
59	S	0.533297	0.559546	0.727272
60	N	0.507904	0.55677	0.895941
61	C	0.501222	0.530944	0.002266
62	C	0.459273	0.539377	0.421248
63	C	0.440909	0.556973	0.443232
64	C	0.404765	0.589864	0.324552
65	S	0.386128	0.608628	0.221095
66	H	0.421652	0.580486	0.872343
67	H	0.448494	0.550192	0.96914
68	H	0.462323	0.481736	0.376481
69	H	0.490158	0.454523	0.263703
70	H	0.524311	0.467568	0.65608
71	H	0.536629	0.419964	0.705852
72	H	0.573698	0.456955	0.684524
73	H	0.578766	0.432468	0.346001
74	H	0.585091	0.409157	0.74996
75	H	0.548391	0.45869	0.236471
76	H	0.467886	0.531657	0.541186
77	H	0.455382	0.579421	0.520225
78	H	0.41835	0.542136	0.519522
79	H	0.404537	0.587964	0.478502
80	C	0.397502	0.795098	0
81	C	0.413393	0.827859	0.001091
82	C	0.420882	0.840442	0.191491
83	C	0.437288	0.873561	0.238769
84	C	0.449819	0.89917	0.123383
85	C	0.46425	0.928394	0.235039
86	C	0.480236	0.961375	0.165602
87	C	0.507998	0.986182	0.252661
88	C	0.523895	0.018097	0.186739
89	C	0.513735	0.028496	0.026482
90	C	0.530853	0.061758	0.962593
91	C	0.53806	0.071449	0.78004
92	C	0.556008	0.107253	0.769003
93	C	0.558115	0.116532	0.976045
94	C	0.573727	0.149318	0.030861
95	C	0.57606	0.159394	0.218192
96	S	0.596204	0.200194	0.239033
97	C	0.601829	0.204573	0
98	C	0.58894	0.176068	0.90365
99	C	0.54352	0.089965	0.083111
100	C	0.485737	0.004667	0.93112
101	N	0.471214	0.008698	0.777537
102	S	0.43973	0.973615	0.727272
103	N	0.442654	0.951207	0.895941
104	C	0.468607	0.970271	0.002266
105	C	0.460372	0.920307	0.421248
106	C	0.442814	0.884605	0.443232
107	C	0.410004	0.81607	0.324552
108	S	0.391275	0.778936	0.221095
109	H	0.419323	0.842134	0.872343
110	H	0.449578	0.898868	0.96914
111	H	0.518199	0.980658	0.376481
112	H	0.545356	0.035311	0.263703
113	H	0.532079	0.056185	0.65608
114	H	0.579783	0.11574	0.705852
115	H	0.542461	0.11569	0.684524
116	H	0.567007	0.145067	0.346001
117	H	0.590365	0.17452	0.74996
118	H	0.540857	0.088882	0.236471
119	H	0.468073	0.936522	0.541186
120	H	0.420209	0.876624	0.520225
121	H	0.457825	0.877003	0.519522
122	H	0.411912	0.817734	0.478502
123	C	0.205846	0.602039	0
124	C	0.172883	0.585205	0.001091
125	C	0.160216	0.580113	0.191491
126	C	0.126891	0.563434	0.238769
127	C	0.101124	0.550384	0.123383
128	C	0.07172	0.535622	0.235039
129	C	0.038536	0.518664	0.165602
130	C	0.013491	0.521508	0.252661
131	C	0.981378	0.505521	0.186739
132	C	0.970998	0.485109	0.026482
133	C	0.937526	0.468994	0.962593
134	C	0.927761	0.466498	0.78004
135	C	0.891735	0.448678	0.769003
136	C	0.882412	0.441538	0.976045
137	C	0.849426	0.424402	0.030861
138	C	0.839302	0.416694	0.218192
139	S	0.79825	0.396081	0.239033
140	C	0.793825	0.397301	0
141	C	0.8225	0.412877	0.90365
142	C	0.909151	0.453494	0.083111
143	C	0.995063	0.48106	0.93112
144	N	0.991096	0.462656	0.777537
145	S	0.026473	0.466344	0.727272
146	N	0.048944	0.491528	0.895941
147	C	0.029672	0.498291	0.002266
148	C	0.079856	0.539821	0.421248
149	C	0.115778	0.557927	0.443232
150	C	0.184731	0.593571	0.324552
151	S	0.222098	0.611941	0.221095
152	H	0.158526	0.576885	0.872343
153	H	0.101429	0.550446	0.96914
154	H	0.018979	0.537111	0.376481
155	H	0.963987	0.509672	0.263703
156	H	0.943112	0.475751	0.65608
157	H	0.883089	0.463801	0.705852
158	H	0.883342	0.42686	0.684524
159	H	0.853729	0.42197	0.346001
160	H	0.824045	0.415828	0.74996
161	H	0.910253	0.451933	0.236471
162	H	0.063542	0.531327	0.541186
163	H	0.123911	0.54346	0.520225
164	H	0.123326	0.580366	0.519522
165	H	0.183052	0.593807	0.478502
