data_C84H36N6O6S18_2023-05-13_09:47:48
#******************************************
#
# CIF file created by Zeo++
# Zeo++ is an open source package to
# analyze microporous materials
#
#*******************************************

_cell_length_a		49.9164   
_cell_length_b		50.2149   
_cell_length_c		7   
_cell_angle_alpha		90   
_cell_angle_beta		90   
_cell_angle_gamma		119.74   

_symmetry_space_group_name_H-M		'P1'
_symmetry_Int_Tables_number		1
_symmetry_cell_setting		Monoclinic

loop_
_symmetry_equiv_pos_as_xyz
'+x,+y,+z'

loop_
_atom_site_label
_atom_site_type_symbol
_atom_site_fract_x
_atom_site_fract_y
_atom_site_fract_z
1	C	0.364383	0.673157	0.999995
2	O	0.391605	0.677929	0.999991
3	C	0.339781	0.641265	0.999998
4	C	0.344565	0.617757	0
5	N	0.375036	0.623255	0
6	C	0.3083	0.635604	3e-06
7	O	0.286189	0.608116	5e-06
8	C	0.300731	0.660131	6e-06
9	C	0.271761	0.654212	5e-06
10	N	0.247822	0.622937	0
11	C	0.326517	0.691768	4e-06
12	O	0.320503	0.712978	7e-06
13	C	0.358505	0.69885	0.999999
14	C	0.381237	0.727712	0.999998
15	N	0.376662	0.753333	0
16	H	0.325731	0.594873	1e-06
17	H	0.265646	0.67178	8e-06
18	H	0.404233	0.731833	0.999997
19	C	0.635617	0.326843	0.999995
20	O	0.608395	0.322071	0.999991
21	C	0.660219	0.358735	0.999998
22	C	0.655435	0.382243	0
23	N	0.624964	0.376745	0
24	C	0.6917	0.364396	3e-06
25	O	0.713811	0.391884	5e-06
26	C	0.699269	0.339869	6e-06
27	C	0.728239	0.345788	5e-06
28	N	0.752178	0.377063	0
29	C	0.673483	0.308232	4e-06
30	O	0.679497	0.287022	7e-06
31	C	0.641495	0.30115	0.999999
32	C	0.618763	0.272288	0.999998
33	N	0.623338	0.246667	0
34	H	0.674269	0.405127	1e-06
35	H	0.734354	0.32822	8e-06
36	H	0.595767	0.268167	0.999997
37	C	0.393639	0.604906	0
38	C	0.409151	0.589607	0.045834
39	C	0.411436	0.587353	0.248171
40	C	0.427743	0.571269	0.351056
41	C	0.429877	0.569164	0.545851
42	C	0.445967	0.553295	0.596496
43	C	0.455779	0.543617	0.439562
44	C	0.472685	0.526942	0.436858
45	C	0.482266	0.517493	0.277935
46	C	0.498317	0.50166	0.329482
47	C	0.500648	0.499361	0.521611
48	C	0.5167	0.483527	0.573124
49	C	0.52629	0.474066	0.414234
50	C	0.543211	0.457375	0.417182
51	C	0.55265	0.448056	0.577582
52	C	0.568853	0.432073	0.532865
53	C	0.571453	0.429517	0.338931
54	C	0.587995	0.413202	0.241863
55	C	0.60173	0.399648	0.343886
56	S	0.617725	0.383874	0.197433
57	C	0.606361	0.395094	0
58	C	0.590751	0.410492	0.040402
59	S	0.554459	0.446287	0.213938
60	S	0.515773	0.484443	0.204221
61	S	0.483193	0.516578	0.647037
62	S	0.445036	0.554215	0.23214
63	C	0.397466	0.601131	0.345348
64	S	0.381816	0.616566	0.193374
65	H	0.418363	0.580522	0.940412
66	H	0.420552	0.578361	0.649679
67	H	0.449981	0.549335	0.74321
68	H	0.478257	0.521448	0.131292
69	H	0.520716	0.479565	0.719633
70	H	0.548281	0.45236	0.722684
71	H	0.57793	0.423114	0.639921
72	H	0.603388	0.398005	0.496875
73	H	0.581785	0.419341	0.931839
74	H	0.39545	0.603118	0.497705
75	C	0.394975	0.790029	0
76	C	0.410245	0.820628	0.045834
77	C	0.412494	0.825136	0.248171
78	C	0.428547	0.857304	0.351056
79	C	0.430649	0.861514	0.545851
80	C	0.446487	0.893253	0.596496
81	C	0.456146	0.912609	0.439562
82	C	0.472789	0.945958	0.436858
83	C	0.48222	0.964857	0.277935
84	C	0.498022	0.996521	0.329482
85	C	0.500317	0.00112	0.521611
86	C	0.516121	0.032786	0.573124
87	C	0.525563	0.051706	0.414234
88	C	0.542222	0.085087	0.417182
89	C	0.551523	0.103715	0.577582
90	C	0.567475	0.13568	0.532865
91	C	0.570027	0.140801	0.338931
92	C	0.586309	0.173431	0.241863
93	C	0.599838	0.200532	0.343886
94	S	0.615582	0.232083	0.197433
95	C	0.604383	0.209654	0
96	C	0.589015	0.178859	0.040402
97	S	0.553288	0.107268	0.213938
98	S	0.515207	0.030956	0.204221
99	S	0.483133	0.966686	0.647037
100	S	0.445569	0.891414	0.23214
101	C	0.398743	0.797579	0.345348
102	S	0.383338	0.766708	0.193374
103	H	0.419312	0.838799	0.940412
104	H	0.42147	0.84312	0.649679
105	H	0.450439	0.901171	0.74321
106	H	0.478272	0.956948	0.131292
107	H	0.520075	0.040709	0.719633
108	H	0.547228	0.095103	0.722684
109	H	0.576417	0.153591	0.639921
110	H	0.601477	0.203811	0.496875
111	H	0.580182	0.161167	0.931839
112	H	0.39676	0.793604	0.497705
113	C	0.210907	0.604589	0
114	C	0.180125	0.589289	0.045834
115	C	0.175591	0.587036	0.248171
116	C	0.14323	0.570951	0.351056
117	C	0.138995	0.568846	0.545851
118	C	0.107067	0.552977	0.596496
119	C	0.087596	0.543299	0.439562
120	C	0.054047	0.526624	0.436858
121	C	0.035035	0.517174	0.277935
122	C	0.003182	0.501343	0.329482
123	C	0.998556	0.499044	0.521611
124	C	0.966701	0.483212	0.573124
125	C	0.947668	0.473752	0.414234
126	C	0.914088	0.457063	0.417182
127	C	0.895348	0.447753	0.577582
128	C	0.863192	0.431771	0.532865
129	C	0.858041	0.429207	0.338931
130	C	0.825217	0.412892	0.241863
131	C	0.797954	0.399345	0.343886
132	S	0.766214	0.383568	0.197433
133	C	0.788777	0.394777	0
134	C	0.819756	0.410173	0.040402
135	S	0.891774	0.445969	0.213938
136	S	0.968542	0.484126	0.204221
137	S	0.033196	0.51626	0.647037
138	S	0.108916	0.553896	0.23214
139	C	0.203312	0.600815	0.345348
140	S	0.234367	0.61625	0.193374
141	H	0.161845	0.580203	0.940412
142	H	0.157499	0.578044	0.649679
143	H	0.099102	0.549018	0.74321
144	H	0.042991	0.521129	0.131292
145	H	0.95873	0.47925	0.719633
146	H	0.904012	0.452062	0.722684
147	H	0.845174	0.422819	0.639921
148	H	0.794655	0.397709	0.496875
149	H	0.837553	0.419016	0.931839
150	H	0.207311	0.602803	0.497705
