data_C96H54N6O6_2023-05-10_21:55:19
#******************************************
#
# CIF file created by Zeo++
# Zeo++ is an open source package to
# analyze microporous materials
#
#*******************************************

_cell_length_a		40.5363   
_cell_length_b		40.8348   
_cell_length_c		7   
_cell_angle_alpha		90   
_cell_angle_beta		90   
_cell_angle_gamma		119.681   

_symmetry_space_group_name_H-M		'P1'
_symmetry_Int_Tables_number		1
_symmetry_cell_setting		Monoclinic

loop_
_symmetry_equiv_pos_as_xyz
'+x,+y,+z'

loop_
_atom_site_label
_atom_site_type_symbol
_atom_site_fract_x
_atom_site_fract_y
_atom_site_fract_z
1	C	0.371558	0.674643	0.999995
2	O	0.405072	0.680508	0.999991
3	C	0.341311	0.635448	0.999998
4	C	0.347236	0.606558	0
5	N	0.384751	0.613314	0
6	C	0.302553	0.628491	3e-06
7	O	0.275367	0.59471	5e-06
8	C	0.293197	0.658634	6e-06
9	C	0.257532	0.65136	5e-06
10	N	0.2281	0.612925	0
11	C	0.324903	0.697516	4e-06
12	O	0.317464	0.723582	7e-06
13	C	0.364282	0.706219	0.999999
14	C	0.392231	0.74169	0.999998
15	N	0.386559	0.773177	0
16	H	0.324078	0.578434	1e-06
17	H	0.249976	0.672951	8e-06
18	H	0.420543	0.746755	0.999997
19	C	0.628442	0.325357	0.999995
20	O	0.594928	0.319492	0.999991
21	C	0.658689	0.364552	0.999998
22	C	0.652764	0.393442	0
23	N	0.615249	0.386686	0
24	C	0.697447	0.371509	3e-06
25	O	0.724633	0.40529	5e-06
26	C	0.706803	0.341366	6e-06
27	C	0.742468	0.34864	5e-06
28	N	0.7719	0.387075	0
29	C	0.675097	0.302484	4e-06
30	O	0.682536	0.276418	7e-06
31	C	0.635718	0.293781	0.999999
32	C	0.607769	0.25831	0.999998
33	N	0.613441	0.226823	0
34	H	0.675922	0.421566	1e-06
35	H	0.750024	0.327049	8e-06
36	H	0.579457	0.253245	0.999997
37	C	0.407686	0.590765	0
38	C	0.411333	0.560463	0.033978
39	C	0.449977	0.572665	0.092624
40	C	0.466101	0.548674	0.143853
41	C	0.468479	0.542318	0.338714
42	C	0.483134	0.519577	0.398549
43	C	0.495677	0.502684	0.264961
44	C	0.510301	0.479828	0.325467
45	C	0.522857	0.462876	0.19304
46	C	0.521361	0.468127	0.994847
47	C	0.533899	0.451326	0.856149
48	C	0.550023	0.427336	0.907378
49	C	0.530231	0.389419	0.905284
50	C	0.555396	0.373849	0.964963
51	C	0.592314	0.409235	0
52	C	0.588667	0.439537	0.966022
53	C	0.531521	0.457682	0.661288
54	C	0.516866	0.480423	0.601453
55	C	0.504323	0.497316	0.735041
56	C	0.489699	0.520173	0.674535
57	C	0.477143	0.537124	0.806962
58	C	0.478639	0.531873	0.005155
59	C	0.493552	0.508685	0.067278
60	C	0.506449	0.491315	0.932724
61	C	0.469769	0.610581	0.094721
62	C	0.444604	0.626151	0.035039
63	H	0.389491	0.531325	0.020738
64	H	0.458779	0.555051	0.445294
65	H	0.4846	0.515142	0.550836
66	H	0.512103	0.47486	0.476821
67	H	0.533903	0.445246	0.247619
68	H	0.50065	0.372279	0.867325
69	H	0.557746	0.356886	0.850367
70	H	0.544517	0.356862	0.094723
71	H	0.61051	0.468675	0.97926
72	H	0.541222	0.44495	0.554708
73	H	0.515401	0.484859	0.449166
74	H	0.487897	0.52514	0.523181
75	H	0.466097	0.554754	0.752383
76	H	0.49935	0.627721	0.132682
77	H	0.455483	0.643138	0.90528
78	H	0.442254	0.643114	0.149636
79	C	0.409056	0.818276	0
80	C	0.439459	0.851993	0.033978
81	C	0.426959	0.878108	0.092624
82	C	0.450946	0.9179	0.143853
83	C	0.457313	0.926568	0.338714
84	C	0.480055	0.963665	0.398549
85	C	0.496937	0.992861	0.264961
86	C	0.519794	0.030041	0.325467
87	C	0.536736	0.059309	0.19304
88	C	0.531472	0.052611	0.994847
89	C	0.548263	0.081711	0.856149
90	C	0.57225	0.121503	0.907378
91	C	0.61045	0.139591	0.905284
92	C	0.625923	0.179963	0.964963
93	C	0.590153	0.181335	0
94	C	0.55975	0.147618	0.966022
95	C	0.541896	0.073042	0.661288
96	C	0.519154	0.035946	0.601453
97	C	0.502272	0.00675	0.735041
98	C	0.479414	0.96957	0.674535
99	C	0.462473	0.940302	0.806962
100	C	0.467736	0.947	0.005155
101	C	0.490925	0.984795	0.067278
102	C	0.508284	0.014815	0.932724
103	C	0.388759	0.860019	0.094721
104	C	0.373285	0.819648	0.035039
105	H	0.468859	0.85933	0.020738
106	H	0.44459	0.904319	0.445294
107	H	0.484499	0.969522	0.550836
108	H	0.524771	0.03676	0.476821
109	H	0.554368	0.087756	0.247619
110	H	0.627851	0.12735	0.867325
111	H	0.642942	0.199142	0.850367
112	H	0.643051	0.186076	0.094723
113	H	0.53035	0.140281	0.97926
114	H	0.554619	0.095292	0.554708
115	H	0.51471	0.030089	0.449166
116	H	0.474438	0.962851	0.523181
117	H	0.444841	0.911855	0.752383
118	H	0.371358	0.87226	0.132682
119	H	0.356158	0.813535	0.90528
120	H	0.356267	0.800468	0.149636
121	C	0.182669	0.590375	0
122	C	0.148618	0.58696	0.033978
123	C	0.122474	0.548643	0.092624
124	C	0.082363	0.532842	0.143853
125	C	0.073618	0.530529	0.338714
126	C	0.036222	0.516174	0.398549
127	C	0.006796	0.50387	0.264961
128	C	0.969315	0.489547	0.325467
129	C	0.939818	0.477231	0.19304
130	C	0.946577	0.478678	0.994847
131	C	0.917248	0.466379	0.856149
132	C	0.877137	0.450577	0.907378
133	C	0.858729	0.470405	0.905284
134	C	0.818091	0.445604	0.964963
135	C	0.816942	0.408846	0
136	C	0.850994	0.41226	0.966022
137	C	0.925994	0.468691	0.661288
138	C	0.96339	0.483046	0.601453
139	C	0.992815	0.49535	0.735041
140	C	0.030297	0.509674	0.674535
141	C	0.059794	0.521989	0.806962
142	C	0.053035	0.520543	0.005155
143	C	0.014934	0.505935	0.067278
144	C	0.984678	0.493285	0.932724
145	C	0.140883	0.528815	0.094721
146	C	0.181521	0.553617	0.035039
147	H	0.141061	0.60876	0.020738
148	H	0.096042	0.540047	0.445294
149	H	0.030312	0.514752	0.550836
150	H	0.962536	0.487795	0.476821
151	H	0.911139	0.466414	0.247619
152	H	0.870909	0.499787	0.867325
153	H	0.798722	0.443388	0.850367
154	H	0.811842	0.456478	0.094723
155	H	0.85855	0.39046	0.97926
156	H	0.90357	0.459174	0.554708
157	H	0.9693	0.484468	0.449166
158	H	0.037075	0.511425	0.523181
159	H	0.088472	0.532807	0.752383
160	H	0.128703	0.499434	0.132682
161	H	0.18777	0.542743	0.90528
162	H	0.20089	0.555833	0.149636
