data_C72H36N6O6S12_2023-05-13_13:59:20
#******************************************
#
# CIF file created by Zeo++
# Zeo++ is an open source package to
# analyze microporous materials
#
#*******************************************

_cell_length_a		37.3562   
_cell_length_b		37.6548   
_cell_length_c		7   
_cell_angle_alpha		90   
_cell_angle_beta		90   
_cell_angle_gamma		119.654   

_symmetry_space_group_name_H-M		'P1'
_symmetry_Int_Tables_number		1
_symmetry_cell_setting		Monoclinic

loop_
_symmetry_equiv_pos_as_xyz
'+x,+y,+z'

loop_
_atom_site_label
_atom_site_type_symbol
_atom_site_fract_x
_atom_site_fract_y
_atom_site_fract_z
1	C	0.374807	0.675314	0.999995
2	O	0.411171	0.681673	0.999991
3	C	0.342008	0.632821	0.999998
4	C	0.348455	0.6015	0
5	N	0.38916	0.608824	0
6	C	0.299955	0.625279	3e-06
7	O	0.270475	0.588654	5e-06
8	C	0.289785	0.657958	6e-06
9	C	0.251088	0.650072	5e-06
10	N	0.219173	0.608401	0
11	C	0.324167	0.700112	4e-06
12	O	0.31608	0.728372	7e-06
13	C	0.366893	0.709548	0.999999
14	C	0.3972	0.748004	0.999998
15	N	0.391027	0.782141	0
16	H	0.323342	0.571008	1e-06
17	H	0.242876	0.67348	8e-06
18	H	0.427919	0.753496	0.999997
19	C	0.625193	0.324686	0.999995
20	O	0.588829	0.318327	0.999991
21	C	0.657992	0.367179	0.999998
22	C	0.651545	0.3985	0
23	N	0.61084	0.391176	0
24	C	0.700045	0.374721	3e-06
25	O	0.729525	0.411346	5e-06
26	C	0.710215	0.342042	6e-06
27	C	0.748912	0.349928	5e-06
28	N	0.780827	0.391599	0
29	C	0.675833	0.299888	4e-06
30	O	0.68392	0.271628	7e-06
31	C	0.633107	0.290452	0.999999
32	C	0.6028	0.251996	0.999998
33	N	0.608973	0.217859	0
34	H	0.676658	0.428992	1e-06
35	H	0.757124	0.32652	8e-06
36	H	0.572081	0.246504	0.999997
37	C	0.41406	0.584377	0
38	C	0.417817	0.553712	0.086917
39	C	0.438492	0.566713	0.266569
40	C	0.448141	0.539493	0.405119
41	C	0.437512	0.499554	0.36869
42	C	0.450104	0.482448	0.518584
43	C	0.470672	0.509784	0.66491
44	C	0.48803	0.505347	0.838542
45	C	0.507459	0.483722	0.863258
46	C	0.51603	0.462528	0.718431
47	C	0.501406	0.420989	0.702895
48	C	0.517299	0.410606	0.539901
49	C	0.544377	0.44461	0.437267
50	C	0.566928	0.443154	0.249479
51	C	0.593982	0.477704	0.149032
52	S	0.61345	0.466232	0.951342
53	C	0.58594	0.415623	0
54	C	0.562275	0.406825	0.16176
55	S	0.550745	0.488532	0.5392
56	S	0.472796	0.555776	0.618995
57	C	0.449376	0.606732	0.306334
58	S	0.434688	0.628181	0.128503
59	H	0.406406	0.523678	0.025128
60	H	0.421406	0.4828	0.241997
61	H	0.444221	0.451248	0.51761
62	H	0.485375	0.521254	0.963
63	H	0.518065	0.482264	0.006279
64	H	0.479789	0.398825	0.803168
65	H	0.508996	0.379576	0.502543
66	H	0.603543	0.509289	0.180216
67	H	0.542753	0.376086	0.214117
68	H	0.465232	0.624817	0.43034
69	C	0.415412	0.831036	0
70	C	0.446188	0.865202	0.086917
71	C	0.432985	0.87273	0.266569
72	C	0.460261	0.909302	0.405119
73	C	0.500454	0.938454	0.36869
74	C	0.517549	0.96789	0.518584
75	C	0.489947	0.961079	0.66491
76	C	0.494283	0.982646	0.838542
77	C	0.51587	0.023328	0.863258
78	C	0.5371	0.052848	0.718431
79	C	0.578928	0.07964	0.702895
80	C	0.589247	0.105663	0.539901
81	C	0.554901	0.098666	0.437267
82	C	0.556208	0.122408	0.249479
83	C	0.521314	0.114845	0.149032
84	S	0.532702	0.145484	0.951342
85	C	0.58373	0.168542	0
86	C	0.592733	0.153884	0.16176
87	S	0.510738	0.061346	0.5392
88	S	0.443732	0.917506	0.618995
89	C	0.39271	0.843751	0.306334
90	S	0.371266	0.807929	0.128503
91	H	0.476437	0.883745	0.025128
92	H	0.517395	0.939169	0.241997
93	H	0.548931	0.993058	0.51761
94	H	0.478323	0.964225	0.963
95	H	0.517261	0.035262	0.006279
96	H	0.601343	0.08028	0.803168
97	H	0.620474	0.128269	0.502543
98	H	0.48952	0.092932	0.180216
99	H	0.623746	0.165109	0.214117
100	H	0.374433	0.841467	0.43034
101	C	0.169888	0.583954	0
102	C	0.135354	0.580453	0.086917
103	C	0.127884	0.559923	0.266569
104	C	0.090958	0.550572	0.405119
105	C	0.061394	0.561358	0.36869
106	C	0.031708	0.549029	0.518584
107	C	0.038741	0.528504	0.66491
108	C	0.017047	0.511374	0.838542
109	C	0.976031	0.492316	0.863258
110	C	0.94623	0.48399	0.718431
111	C	0.919027	0.498737	0.702895
112	C	0.892815	0.483097	0.539901
113	C	0.900082	0.45609	0.437267
114	C	0.876224	0.433805	0.249479
115	C	0.884064	0.406818	0.149032
116	S	0.853208	0.387651	0.951342
117	C	0.829691	0.415201	0
118	C	0.844353	0.438658	0.16176
119	S	0.937877	0.449488	0.5392
120	S	0.082831	0.526084	0.618995
121	C	0.157274	0.548884	0.306334
122	S	0.193406	0.563256	0.128503
123	H	0.116517	0.591944	0.025128
124	H	0.060559	0.577398	0.241997
125	H	0.006208	0.555061	0.51761
126	H	0.035662	0.513888	0.963
127	H	0.964034	0.481841	0.006279
128	H	0.918228	0.520262	0.803168
129	H	0.86989	0.491522	0.502543
130	H	0.906297	0.397146	0.180216
131	H	0.832861	0.458172	0.214117
132	H	0.159696	0.533083	0.43034
