data_C48H24N6O6S6_2023-05-30_00:53:15
#******************************************
#
# CIF file created by Zeo++
# Zeo++ is an open source package to
# analyze microporous materials
#
#*******************************************

_cell_length_a		34.4257   
_cell_length_b		34.7243   
_cell_length_c		7   
_cell_angle_alpha		90   
_cell_angle_beta		90   
_cell_angle_gamma		119.624   

_symmetry_space_group_name_H-M		'P1'
_symmetry_Int_Tables_number		1
_symmetry_cell_setting		Monoclinic

loop_
_symmetry_equiv_pos_as_xyz
'+x,+y,+z'

loop_
_atom_site_label
_atom_site_type_symbol
_atom_site_fract_x
_atom_site_fract_y
_atom_site_fract_z
1	C	0.378332	0.676041	0.999995
2	O	0.417787	0.682935	0.999991
3	C	0.342768	0.629975	0.999998
4	C	0.349784	0.59602	0
5	N	0.393949	0.603961	0
6	C	0.29714	0.621799	3e-06
7	O	0.265174	0.582094	5e-06
8	C	0.286083	0.657226	6e-06
9	C	0.244097	0.648677	5e-06
10	N	0.209492	0.603503	0
11	C	0.323365	0.702924	4e-06
12	O	0.314571	0.73356	7e-06
13	C	0.369723	0.713154	0.999999
14	C	0.402584	0.754843	0.999998
15	N	0.395864	0.79185	0
16	H	0.322553	0.562966	1e-06
17	H	0.235171	0.674052	8e-06
18	H	0.435915	0.760796	0.999997
19	C	0.621668	0.323959	0.999995
20	O	0.582213	0.317065	0.999991
21	C	0.657232	0.370025	0.999998
22	C	0.650216	0.40398	0
23	N	0.606051	0.396039	0
24	C	0.70286	0.378201	3e-06
25	O	0.734826	0.417906	5e-06
26	C	0.713917	0.342774	6e-06
27	C	0.755903	0.351323	5e-06
28	N	0.790508	0.396497	0
29	C	0.676635	0.297076	4e-06
30	O	0.685429	0.26644	7e-06
31	C	0.630277	0.286846	0.999999
32	C	0.597416	0.245157	0.999998
33	N	0.604136	0.20815	0
34	H	0.677447	0.437034	1e-06
35	H	0.764829	0.325948	8e-06
36	H	0.564085	0.239204	0.999997
37	C	0.579015	0.422542	0
38	C	0.562546	0.438687	0.131018
39	C	0.539135	0.461636	0.08131
40	C	0.528696	0.471871	0.904274
41	C	0.504652	0.49544	0.920267
42	C	0.497282	0.502662	0.104002
43	C	0.47323	0.526239	0.12011
44	C	0.462609	0.536652	0.94397
45	C	0.439352	0.55945	0.888446
46	C	0.420985	0.577458	0
47	S	0.48232	0.517332	0.759252
48	S	0.519621	0.480763	0.26561
49	H	0.576124	0.425376	0.8473
50	H	0.567074	0.434248	0.281739
51	H	0.53747	0.463272	0.768607
52	H	0.464831	0.53447	0.257079
53	H	0.43598	0.562751	0.735268
54	H	0.404486	0.59363	0.931943
55	C	0.576775	0.154687	0
56	C	0.560675	0.122397	0.131018
57	C	0.537791	0.076499	0.08131
58	C	0.527584	0.056031	0.904274
59	C	0.504081	0.008892	0.920267
60	C	0.496879	0.994445	0.104002
61	C	0.473369	0.94729	0.12011
62	C	0.462985	0.926465	0.94397
63	C	0.440251	0.880869	0.888446
64	C	0.422293	0.844856	0
65	S	0.48225	0.965108	0.759252
66	S	0.518717	0.038242	0.26561
67	H	0.573949	0.149019	0.8473
68	H	0.565102	0.131276	0.281739
69	H	0.536159	0.073231	0.768607
70	H	0.465161	0.930826	0.257079
71	H	0.436959	0.874263	0.735268
72	H	0.406166	0.81251	0.931943
73	C	0.843516	0.422084	0
74	C	0.876085	0.438229	0.131018
75	C	0.92238	0.461178	0.08131
76	C	0.943025	0.471412	0.904274
77	C	0.990573	0.494982	0.920267
78	C	0.005144	0.502206	0.104002
79	C	0.052707	0.525785	0.12011
80	C	0.073712	0.536196	0.94397
81	C	0.119704	0.558995	0.888446
82	C	0.156028	0.577	0
83	S	0.034735	0.516873	0.759252
84	S	0.960968	0.480308	0.26561
85	H	0.849233	0.424919	0.8473
86	H	0.867129	0.43379	0.281739
87	H	0.925677	0.462811	0.768607
88	H	0.069314	0.534018	0.257079
89	H	0.126366	0.5623	0.735268
90	H	0.188654	0.593173	0.931943
