data_C66H36N12O6_2023-05-10_23:51:09
#******************************************
#
# CIF file created by Zeo++
# Zeo++ is an open source package to
# analyze microporous materials
#
#*******************************************

_cell_length_a		33.4628   
_cell_length_b		33.7615   
_cell_length_c		7   
_cell_angle_alpha		90   
_cell_angle_beta		90   
_cell_angle_gamma		119.614   

_symmetry_space_group_name_H-M		'P1'
_symmetry_Int_Tables_number		1
_symmetry_cell_setting		Monoclinic

loop_
_symmetry_equiv_pos_as_xyz
'+x,+y,+z'

loop_
_atom_site_label
_atom_site_type_symbol
_atom_site_fract_x
_atom_site_fract_y
_atom_site_fract_z
1	C	0.379625	0.676307	0.999995
2	O	0.420213	0.683397	0.999991
3	C	0.343048	0.628933	0.999998
4	C	0.350273	0.594014	0
5	N	0.395707	0.602179	0
6	C	0.296109	0.620524	3e-06
7	O	0.263232	0.579692	5e-06
8	C	0.284726	0.656958	6e-06
9	C	0.241533	0.648166	5e-06
10	N	0.205943	0.601708	0
11	C	0.32307	0.703954	4e-06
12	O	0.314016	0.735461	7e-06
13	C	0.370759	0.714474	0.999999
14	C	0.404557	0.757348	0.999998
15	N	0.397636	0.795406	0
16	H	0.322266	0.56002	1e-06
17	H	0.232345	0.674262	8e-06
18	H	0.438846	0.76347	0.999997
19	C	0.620375	0.323693	0.999995
20	O	0.579787	0.316603	0.999991
21	C	0.656952	0.371067	0.999998
22	C	0.649727	0.405986	0
23	N	0.604293	0.397821	0
24	C	0.703891	0.379476	3e-06
25	O	0.736768	0.420308	5e-06
26	C	0.715274	0.343042	6e-06
27	C	0.758467	0.351834	5e-06
28	N	0.794057	0.398292	0
29	C	0.67693	0.296046	4e-06
30	O	0.685984	0.264539	7e-06
31	C	0.629241	0.285526	0.999999
32	C	0.595443	0.242652	0.999998
33	N	0.602364	0.204594	0
34	H	0.677734	0.43998	1e-06
35	H	0.767655	0.325738	8e-06
36	H	0.561154	0.23653	0.999997
37	C	0.423527	0.574923	0
38	C	0.466608	0.584427	0.036505
39	C	0.479233	0.570949	0.216559
40	C	0.493178	0.537512	0.223629
41	C	0.495195	0.514426	0.060093
42	C	0.508953	0.481884	0.072859
43	C	0.521209	0.471247	0.249589
44	C	0.535512	0.43827	0.268567
45	C	0.538676	0.412486	0.105327
46	C	0.576473	0.425077	0
47	C	0.547445	0.429227	0.447279
48	C	0.544646	0.452973	0.601243
49	N	0.530947	0.484247	0.588115
50	C	0.519301	0.494098	0.41604
51	C	0.505242	0.527077	0.40313
52	N	0.503234	0.548794	0.562892
53	C	0.48998	0.580414	0.551682
54	C	0.477769	0.592621	0.383611
55	H	0.395388	0.556907	0.099575
56	H	0.494099	0.602103	0.933396
57	H	0.485979	0.521436	0.920079
58	H	0.510109	0.46501	0.942289
59	H	0.507316	0.380993	0.072538
60	H	0.57625	0.404196	0.881798
61	H	0.558821	0.404477	0.466592
62	H	0.55357	0.447516	0.744237
63	H	0.489605	0.596129	0.686556
64	H	0.46768	0.618607	0.383506
65	C	0.424813	0.849918	0
66	C	0.414927	0.883024	0.036505
67	C	0.428375	0.908862	0.216559
68	C	0.461872	0.955809	0.223629
69	C	0.485059	0.980707	0.060093
70	C	0.517658	0.02658	0.072859
71	C	0.528254	0.049235	0.249589
72	C	0.561286	0.096079	0.268567
73	C	0.587175	0.124786	0.105327
74	C	0.574228	0.149612	0
75	C	0.570282	0.116833	0.447279
76	C	0.546438	0.090508	0.601243
77	N	0.515113	0.045951	0.588115
78	C	0.505302	0.024678	0.41604
79	C	0.472266	0.978074	0.40313
80	N	0.450456	0.954543	0.562892
81	C	0.418779	0.910082	0.551682
82	C	0.406605	0.885912	0.383611
83	H	0.443138	0.840012	0.099575
84	H	0.39695	0.892628	0.933396
85	H	0.478085	0.964652	0.920079
86	H	0.534608	0.044465	0.942289
87	H	0.61907	0.125072	0.072538
88	H	0.595215	0.17011	0.881798
89	H	0.595068	0.152623	0.466592
90	H	0.551854	0.104734	0.744237
91	H	0.402988	0.894118	0.686556
92	H	0.380567	0.850168	0.383506
93	C	0.150946	0.574452	0
94	C	0.11775	0.531843	0.036505
95	C	0.091678	0.519483	0.216559
96	C	0.044235	0.505973	0.223629
97	C	0.019032	0.504161	0.060093
98	C	0.972675	0.49083	0.072859
99	C	0.949823	0.478811	0.249589
100	C	0.902487	0.464945	0.268567
101	C	0.873435	0.462021	0.105327
102	C	0.848584	0.424605	0
103	C	0.881559	0.453234	0.447279
104	C	0.908202	0.455813	0.601243
105	N	0.953226	0.469096	0.588115
106	C	0.974682	0.480518	0.41604
107	C	0.021777	0.494143	0.40313
108	N	0.045595	0.495957	0.562892
109	C	0.090527	0.508798	0.551682
110	C	0.114912	0.52076	0.383611
111	H	0.16076	0.602375	0.099575
112	H	0.108237	0.504563	0.933396
113	H	0.035222	0.513206	0.920079
114	H	0.954568	0.489819	0.942289
115	H	0.8729	0.493229	0.072538
116	H	0.827821	0.424988	0.881798
117	H	0.845396	0.442193	0.466592
118	H	0.893862	0.447045	0.744237
119	H	0.106693	0.509047	0.686556
120	H	0.151039	0.53052	0.383506
