data_C42H24N6O6S3_2023-05-10_20:40:54
#******************************************
#
# CIF file created by Zeo++
# Zeo++ is an open source package to
# analyze microporous materials
#
#*******************************************

_cell_length_a		30.3728   
_cell_length_b		30.6715   
_cell_length_c		7   
_cell_angle_alpha		90   
_cell_angle_beta		90   
_cell_angle_gamma		119.575   

_symmetry_space_group_name_H-M		'P1'
_symmetry_Int_Tables_number		1
_symmetry_cell_setting		Monoclinic

loop_
_symmetry_equiv_pos_as_xyz
'+x,+y,+z'

loop_
_atom_site_label
_atom_site_type_symbol
_atom_site_fract_x
_atom_site_fract_y
_atom_site_fract_z
1	C	0.384326	0.677275	0.999995
2	O	0.429038	0.685075	0.999991
3	C	0.344069	0.625147	0.999998
4	C	0.352059	0.586725	0
5	N	0.402109	0.59571	0
6	C	0.292362	0.615895	3e-06
7	O	0.256175	0.570967	5e-06
8	C	0.279789	0.655984	6e-06
9	C	0.23221	0.64631	5e-06
10	N	0.193039	0.595192	0
11	C	0.321993	0.707695	4e-06
12	O	0.311991	0.742362	7e-06
13	C	0.374525	0.71927	0.999999
14	C	0.411724	0.766445	0.999998
15	N	0.404065	0.808321	0
16	H	0.321233	0.549321	1e-06
17	H	0.222064	0.675024	8e-06
18	H	0.449496	0.773181	0.999997
19	C	0.615674	0.322725	0.999995
20	O	0.570962	0.314925	0.999991
21	C	0.655931	0.374853	0.999998
22	C	0.647941	0.413275	0
23	N	0.597891	0.40429	0
24	C	0.707638	0.384105	3e-06
25	O	0.743825	0.429033	5e-06
26	C	0.720211	0.344016	6e-06
27	C	0.76779	0.35369	5e-06
28	N	0.806961	0.404808	0
29	C	0.678007	0.292305	4e-06
30	O	0.688009	0.257638	7e-06
31	C	0.625475	0.28073	0.999999
32	C	0.588276	0.233555	0.999998
33	N	0.595935	0.191679	0
34	H	0.678767	0.450679	1e-06
35	H	0.777936	0.324976	8e-06
36	H	0.550504	0.226819	0.999997
37	C	0.567218	0.43428	0
38	C	0.55137	0.449781	0.150547
39	C	0.523918	0.476616	0.164044
40	C	0.512061	0.488206	0.340058
41	S	0.47949	0.520042	0.323718
42	C	0.479846	0.519698	0.078893
43	C	0.457796	0.541251	0.957396
44	C	0.432782	0.56572	0
45	C	0.505173	0.494941	0.015565
46	H	0.587766	0.414195	0.025161
47	H	0.561248	0.440133	0.288058
48	H	0.520854	0.479611	0.479992
49	H	0.462146	0.536981	0.805074
50	H	0.419156	0.579034	0.882603
51	H	0.509482	0.49073	0.864535
52	C	0.564983	0.131181	0
53	C	0.549531	0.100186	0.150547
54	C	0.522781	0.046511	0.164044
55	C	0.511228	0.023328	0.340058
56	S	0.479493	0.959646	0.323718
57	C	0.479836	0.960339	0.078893
58	C	0.458351	0.917227	0.957396
59	C	0.43396	0.868302	0
60	C	0.504514	0.009858	0.015565
61	H	0.585004	0.171356	0.025161
62	H	0.559149	0.119492	0.288058
63	H	0.519796	0.040519	0.479992
64	H	0.462608	0.92575	0.805074
65	H	0.420689	0.841665	0.882603
66	H	0.508712	0.018282	0.864535
67	C	0.867013	0.433762	0
68	C	0.898313	0.449256	0.150547
69	C	0.952514	0.476096	0.164044
70	C	0.975924	0.487689	0.340058
71	S	0.04023	0.519535	0.323718
72	C	0.039531	0.519186	0.078893
73	C	0.083066	0.540745	0.957396
74	C	0.132471	0.565202	0
75	C	0.989526	0.494424	0.015565
76	H	0.826444	0.413672	0.025161
77	H	0.878817	0.439598	0.288058
78	H	0.958564	0.479093	0.479992
79	H	0.074459	0.536492	0.805074
80	H	0.159369	0.578525	0.882603
81	H	0.981019	0.490211	0.864535
