data_C42H24N6O6S3_2023-05-30_07:56:39
#******************************************
#
# CIF file created by Zeo++
# Zeo++ is an open source package to
# analyze microporous materials
#
#*******************************************

_cell_length_a		30.3861   
_cell_length_b		30.6848   
_cell_length_c		7   
_cell_angle_alpha		90   
_cell_angle_beta		90   
_cell_angle_gamma		119.575   

_symmetry_space_group_name_H-M		'P1'
_symmetry_Int_Tables_number		1
_symmetry_cell_setting		Monoclinic

loop_
_symmetry_equiv_pos_as_xyz
'+x,+y,+z'

loop_
_atom_site_label
_atom_site_type_symbol
_atom_site_fract_x
_atom_site_fract_y
_atom_site_fract_z
1	C	0.384303	0.67727	0.999995
2	O	0.428996	0.685067	0.999991
3	C	0.344064	0.625165	0.999998
4	C	0.352051	0.58676	0
5	N	0.402078	0.595741	0
6	C	0.292379	0.615917	3e-06
7	O	0.256209	0.571008	5e-06
8	C	0.279812	0.655989	6e-06
9	C	0.232254	0.646319	5e-06
10	N	0.1931	0.595223	0
11	C	0.321998	0.707677	4e-06
12	O	0.312001	0.742329	7e-06
13	C	0.374507	0.719248	0.999999
14	C	0.41169	0.766402	0.999998
15	N	0.404035	0.80826	0
16	H	0.321238	0.549371	1e-06
17	H	0.222112	0.675021	8e-06
18	H	0.449446	0.773135	0.999997
19	C	0.615697	0.32273	0.999995
20	O	0.571004	0.314933	0.999991
21	C	0.655936	0.374835	0.999998
22	C	0.647949	0.41324	0
23	N	0.597922	0.404259	0
24	C	0.707621	0.384083	3e-06
25	O	0.743791	0.428992	5e-06
26	C	0.720188	0.344011	6e-06
27	C	0.767746	0.353681	5e-06
28	N	0.8069	0.404777	0
29	C	0.678002	0.292323	4e-06
30	O	0.687999	0.257671	7e-06
31	C	0.625493	0.280752	0.999999
32	C	0.58831	0.233598	0.999998
33	N	0.595965	0.19174	0
34	H	0.678762	0.450629	1e-06
35	H	0.777888	0.324979	8e-06
36	H	0.550554	0.226865	0.999997
37	C	0.432738	0.565763	0
38	C	0.458004	0.541056	0.966314
39	C	0.479843	0.519708	0.091019
40	C	0.479899	0.519655	0.287209
41	S	0.510097	0.490135	0.38106
42	C	0.524488	0.476063	0.158142
43	C	0.551839	0.449325	0.152732
44	C	0.567262	0.434237	0
45	C	0.50564	0.494488	0.018728
46	H	0.419673	0.578532	0.879216
47	H	0.462921	0.53624	0.814765
48	H	0.464029	0.53517	0.385838
49	H	0.561564	0.439826	0.290625
50	H	0.587842	0.414119	0.023436
51	H	0.509748	0.490472	0.867429
52	C	0.433917	0.868215	0
53	C	0.458546	0.917625	0.966314
54	C	0.479826	0.960325	0.091019
55	C	0.479879	0.960433	0.287209
56	S	0.509305	0.019479	0.38106
57	C	0.523333	0.047622	0.158142
58	C	0.549986	0.101101	0.152732
59	C	0.565026	0.131268	0
60	C	0.504966	0.010768	0.018728
61	H	0.421189	0.842671	0.879216
62	H	0.463347	0.927248	0.814765
63	H	0.464414	0.929403	0.385838
64	H	0.559455	0.120109	0.290625
65	H	0.58508	0.171508	0.023436
66	H	0.50897	0.018801	0.867429
67	C	0.132558	0.565245	0
68	C	0.082663	0.540542	0.966314
69	C	0.039545	0.51919	0.091019
70	C	0.039436	0.519135	0.287209
71	S	0.979811	0.489609	0.38106
72	C	0.951392	0.475539	0.158142
73	C	0.897389	0.448798	0.152732
74	C	0.866926	0.433718	0
75	C	0.988607	0.493967	0.018728
76	H	0.158352	0.57802	0.879216
77	H	0.072946	0.535735	0.814765
78	H	0.070771	0.534651	0.385838
79	H	0.878194	0.439289	0.290625
80	H	0.826291	0.413596	0.023436
81	H	0.980496	0.489951	0.867429
