data_C78H42N18O6S3_2023-05-10_23:44:45
#******************************************
#
# CIF file created by Zeo++
# Zeo++ is an open source package to
# analyze microporous materials
#
#*******************************************

_cell_length_a		40.3655   
_cell_length_b		40.664   
_cell_length_c		7   
_cell_angle_alpha		90   
_cell_angle_beta		90   
_cell_angle_gamma		119.679   

_symmetry_space_group_name_H-M		'P1'
_symmetry_Int_Tables_number		1
_symmetry_cell_setting		Monoclinic

loop_
_symmetry_equiv_pos_as_xyz
'+x,+y,+z'

loop_
_atom_site_label
_atom_site_type_symbol
_atom_site_fract_x
_atom_site_fract_y
_atom_site_fract_z
1	C	0.371719	0.674676	0.999995
2	O	0.405375	0.680566	0.999991
3	C	0.341345	0.635318	0.999998
4	C	0.347296	0.606307	0
5	N	0.38497	0.613091	0
6	C	0.302424	0.628332	3e-06
7	O	0.275124	0.594408	5e-06
8	C	0.293027	0.658601	6e-06
9	C	0.257211	0.651296	5e-06
10	N	0.227656	0.612699	0
11	C	0.324866	0.697645	4e-06
12	O	0.317396	0.72382	7e-06
13	C	0.364412	0.706385	0.999999
14	C	0.392478	0.742004	0.999998
15	N	0.386782	0.773623	0
16	H	0.324041	0.578065	1e-06
17	H	0.249623	0.672977	8e-06
18	H	0.42091	0.747091	0.999997
19	C	0.628281	0.325324	0.999995
20	O	0.594625	0.319434	0.999991
21	C	0.658655	0.364682	0.999998
22	C	0.652704	0.393693	0
23	N	0.61503	0.386909	0
24	C	0.697576	0.371668	3e-06
25	O	0.724876	0.405592	5e-06
26	C	0.706973	0.341399	6e-06
27	C	0.742789	0.348704	5e-06
28	N	0.772344	0.387301	0
29	C	0.675134	0.302355	4e-06
30	O	0.682604	0.27618	7e-06
31	C	0.635588	0.293615	0.999999
32	C	0.607522	0.257996	0.999998
33	N	0.613218	0.226377	0
34	H	0.675959	0.421935	1e-06
35	H	0.750377	0.327023	8e-06
36	H	0.57909	0.252909	0.999997
37	C	0.408002	0.590447	0
38	C	0.428314	0.604586	0.159856
39	C	0.43386	0.581102	0.301062
40	C	0.444447	0.554431	0.247584
41	C	0.450203	0.533398	0.38731
42	C	0.460727	0.504361	0.346039
43	C	0.446467	0.470702	0.455056
44	C	0.455765	0.441919	0.422379
45	C	0.481069	0.443551	0.27811
46	C	0.489852	0.413053	0.248087
47	N	0.459583	0.377511	0.263539
48	C	0.465818	0.348093	0.238233
49	C	0.501232	0.352032	0.201329
50	C	0.532269	0.388462	0.188467
51	C	0.57048	0.393847	0.155219
52	C	0.591998	0.409553	0
53	C	0.526497	0.419354	0.213044
54	C	0.496577	0.476739	0.162431
55	N	0.520783	0.484924	0.014507
56	S	0.530011	0.526416	0.92884
57	N	0.503865	0.536566	0.072943
58	C	0.48622	0.507615	0.196764
59	N	0.445235	0.537888	0.575852
60	C	0.435371	0.564004	0.62458
61	C	0.429619	0.586178	0.494175
62	H	0.394143	0.560646	0.962489
63	H	0.441043	0.634525	0.192818
64	H	0.448319	0.550361	0.097704
65	H	0.426819	0.466418	0.572262
66	H	0.442635	0.417019	0.514914
67	H	0.440653	0.320269	0.248855
68	H	0.504316	0.327208	0.182738
69	H	0.581631	0.383869	0.269662
70	H	0.620117	0.4124	0.988428
71	H	0.55047	0.447982	0.206146
72	H	0.432144	0.566712	0.776988
73	H	0.421705	0.606655	0.5434
74	C	0.409372	0.818911	0
75	C	0.395043	0.824961	0.159856
76	C	0.418589	0.853781	0.301062
77	C	0.445303	0.890757	0.247584
78	C	0.466386	0.917349	0.38731
79	C	0.495477	0.956613	0.346039
80	C	0.529368	0.975944	0.455056
81	C	0.558211	0.013741	0.422379
82	C	0.556409	0.037158	0.27811
83	C	0.586978	0.076151	0.248087
84	N	0.622863	0.081513	0.263539
85	C	0.652363	0.116911	0.238233
86	C	0.64818	0.148039	0.201329
87	C	0.611397	0.142554	0.188467
88	C	0.605745	0.175013	0.155219
89	C	0.589834	0.180698	0
90	C	0.580414	0.106149	0.213044
91	C	0.522983	0.019529	0.162431
92	N	0.514608	0.035348	0.014507
93	S	0.472884	0.003254	0.92884
94	N	0.46286	0.967299	0.072943
95	C	0.492044	0.978603	0.196764
96	N	0.46191	0.907973	0.575852
97	C	0.435749	0.872264	0.62458
98	C	0.41352	0.844542	0.494175
99	H	0.439387	0.834807	0.962489
100	H	0.364898	0.807811	0.192818
101	H	0.449365	0.898632	0.097704
102	H	0.533796	0.960759	0.572262
103	H	0.583299	0.025489	0.514914
104	H	0.680465	0.119656	0.248855
105	H	0.673087	0.175754	0.182738
106	H	0.615692	0.19596	0.269662
107	H	0.586794	0.205694	0.988428
108	H	0.551513	0.101427	0.206146
109	H	0.43305	0.866381	0.776988
110	H	0.393008	0.816366	0.5434
111	C	0.182034	0.590055	0
112	C	0.176051	0.569866	0.159856
113	C	0.146959	0.56453	0.301062
114	C	0.109657	0.554226	0.247584
115	C	0.082819	0.548667	0.38731
116	C	0.043203	0.53844	0.346039
117	C	0.023573	0.552767	0.455056
118	C	0.985432	0.543753	0.422379
119	C	0.96193	0.518704	0.27811
120	C	0.922578	0.51021	0.248087
121	N	0.916962	0.54039	0.263539
122	C	0.881227	0.53441	0.238233
123	C	0.849996	0.499343	0.201329
124	C	0.855741	0.468397	0.188467
125	C	0.823183	0.430554	0.155219
126	C	0.817576	0.409162	0
127	C	0.892497	0.47391	0.213044
128	C	0.979848	0.503146	0.162431
129	N	0.964017	0.479141	0.014507
130	S	0.996513	0.469743	0.92884
131	N	0.032683	0.495548	0.072943
132	C	0.021144	0.513195	0.196764
133	N	0.092262	0.553553	0.575852
134	C	0.128288	0.563146	0.62458
135	C	0.156269	0.568693	0.494175
136	H	0.165878	0.603961	0.962489
137	H	0.193467	0.557078	0.192818
138	H	0.101723	0.550421	0.097704
139	H	0.038793	0.572236	0.572262
140	H	0.973474	0.556904	0.514914
141	H	0.878289	0.559488	0.248855
142	H	0.822004	0.496451	0.182738
143	H	0.802085	0.419585	0.269662
144	H	0.792496	0.38132	0.988428
145	H	0.897425	0.450005	0.206146
146	H	0.134213	0.56632	0.776988
147	H	0.184695	0.576393	0.5434
