data_C66H36N12O6_2023-05-26_20:08:25
#******************************************
#
# CIF file created by Zeo++
# Zeo++ is an open source package to
# analyze microporous materials
#
#*******************************************

_cell_length_a		32.9777   
_cell_length_b		33.2764   
_cell_length_c		7   
_cell_angle_alpha		90   
_cell_angle_beta		90   
_cell_angle_gamma		119.608   

_symmetry_space_group_name_H-M		'P1'
_symmetry_Int_Tables_number		1
_symmetry_cell_setting		Monoclinic

loop_
_symmetry_equiv_pos_as_xyz
'+x,+y,+z'

loop_
_atom_site_label
_atom_site_type_symbol
_atom_site_fract_x
_atom_site_fract_y
_atom_site_fract_z
1	C	0.380304	0.676447	0.999995
2	O	0.42149	0.68364	0.999991
3	C	0.343195	0.628385	0.999998
4	C	0.350531	0.592958	0
5	N	0.396632	0.601243	0
6	C	0.295567	0.619854	3e-06
7	O	0.26221	0.578429	5e-06
8	C	0.284012	0.656817	6e-06
9	C	0.240185	0.647897	5e-06
10	N	0.204077	0.600765	0
11	C	0.322914	0.704495	4e-06
12	O	0.313724	0.73646	7e-06
13	C	0.371304	0.715169	0.999999
14	C	0.405594	0.758665	0.999998
15	N	0.398567	0.797276	0
16	H	0.322116	0.558471	1e-06
17	H	0.230858	0.674373	8e-06
18	H	0.440387	0.764876	0.999997
19	C	0.619696	0.323553	0.999995
20	O	0.57851	0.31636	0.999991
21	C	0.656805	0.371615	0.999998
22	C	0.649469	0.407042	0
23	N	0.603368	0.398757	0
24	C	0.704433	0.380146	3e-06
25	O	0.73779	0.421571	5e-06
26	C	0.715988	0.343183	6e-06
27	C	0.759815	0.352103	5e-06
28	N	0.795923	0.399235	0
29	C	0.677086	0.295505	4e-06
30	O	0.686276	0.26354	7e-06
31	C	0.628696	0.284831	0.999999
32	C	0.594406	0.241335	0.999998
33	N	0.601433	0.202724	0
34	H	0.677884	0.441529	1e-06
35	H	0.769142	0.325627	8e-06
36	H	0.559613	0.235124	0.999997
37	C	0.424864	0.573591	0
38	C	0.466304	0.590032	0.085862
39	C	0.472357	0.568592	0.259285
40	C	0.497734	0.544391	0.25909
41	C	0.518302	0.538656	0.093108
42	C	0.542811	0.514701	0.098634
43	C	0.547547	0.495509	0.270211
44	C	0.572269	0.47076	0.281752
45	C	0.595059	0.463228	0.115643
46	C	0.575136	0.426409	0
47	C	0.575622	0.452241	0.455475
48	C	0.554553	0.458972	0.612004
49	N	0.531096	0.482502	0.605953
50	C	0.526942	0.50083	0.438857
51	C	0.502107	0.525208	0.433299
52	N	0.482379	0.530277	0.595011
53	C	0.458568	0.553454	0.590812
54	C	0.452613	0.573078	0.428201
55	H	0.393395	0.543773	0.052013
56	H	0.497436	0.61967	0.029751
57	H	0.515333	0.552634	0.95661
58	H	0.557989	0.511015	0.966387
59	H	0.630758	0.490275	0.089821
60	H	0.594204	0.423162	0.880291
61	H	0.593975	0.432878	0.468994
62	H	0.555848	0.4453	0.751347
63	H	0.444078	0.555826	0.726919
64	H	0.433275	0.591595	0.434032
65	C	0.426137	0.852579	0
66	C	0.409286	0.877175	0.085862
67	C	0.430788	0.904422	0.259285
68	C	0.454913	0.953483	0.25909
69	C	0.460516	0.979476	0.093108
70	C	0.484401	0.027437	0.098634
71	C	0.503653	0.051153	0.270211
72	C	0.528334	0.100112	0.281752
73	C	0.535726	0.130081	0.115643
74	C	0.572889	0.146944	0
75	C	0.546921	0.121795	0.455475
76	C	0.540322	0.094319	0.612004
77	N	0.516856	0.047818	0.605953
78	C	0.498468	0.025534	0.438857
79	C	0.47416	0.976831	0.433299
80	N	0.46922	0.952328	0.595011
81	C	0.446112	0.905829	0.590812
82	C	0.426435	0.880481	0.428201
83	H	0.456355	0.851098	0.052013
84	H	0.379252	0.878502	0.029751
85	H	0.44649	0.962678	0.95661
86	H	0.487986	0.046077	0.966387
87	H	0.508259	0.138488	0.089821
88	H	0.576003	0.168988	0.880291
89	H	0.566239	0.159123	0.468994
90	H	0.554053	0.109161	0.751347
91	H	0.443842	0.889172	0.726919
92	H	0.407976	0.84302	0.434032
93	C	0.148274	0.573113	0
94	C	0.123685	0.532077	0.085862
95	C	0.09613	0.52627	0.259285
96	C	0.046628	0.50141	0.25909
97	C	0.020458	0.481151	0.093108
98	C	0.972064	0.457146	0.098634
99	C	0.948075	0.452622	0.270211
100	C	0.898672	0.428412	0.281752
101	C	0.868491	0.405975	0.115643
102	C	0.85125	0.425931	0
103	C	0.876732	0.425247	0.455475
104	C	0.9044	0.445993	0.612004
105	N	0.951323	0.468964	0.605953
106	C	0.973866	0.47292	0.438857
107	C	0.023009	0.497244	0.433299
108	N	0.047676	0.516678	0.595011
109	C	0.094595	0.540001	0.590812
110	C	0.120227	0.545725	0.428201
111	H	0.149525	0.604413	0.052013
112	H	0.122587	0.501111	0.029751
113	H	0.037452	0.483972	0.95661
114	H	0.9533	0.442191	0.966387
115	H	0.860257	0.370521	0.089821
116	H	0.829069	0.407133	0.880291
117	H	0.839061	0.407283	0.468994
118	H	0.889374	0.444822	0.751347
119	H	0.111355	0.554286	0.726919
120	H	0.158025	0.564669	0.434032
