data_C48H24N6O6S6_2023-05-11_22:22:06
#******************************************
#
# CIF file created by Zeo++
# Zeo++ is an open source package to
# analyze microporous materials
#
#*******************************************

_cell_length_a		34.347   
_cell_length_b		34.6457   
_cell_length_c		7   
_cell_angle_alpha		90   
_cell_angle_beta		90   
_cell_angle_gamma		119.624   

_symmetry_space_group_name_H-M		'P1'
_symmetry_Int_Tables_number		1
_symmetry_cell_setting		Monoclinic

loop_
_symmetry_equiv_pos_as_xyz
'+x,+y,+z'

loop_
_atom_site_label
_atom_site_type_symbol
_atom_site_fract_x
_atom_site_fract_y
_atom_site_fract_z
1	C	0.378435	0.676062	0.999995
2	O	0.41798	0.682971	0.999991
3	C	0.34279	0.629892	0.999998
4	C	0.349823	0.595861	0
5	N	0.394089	0.603819	0
6	C	0.297058	0.621697	3e-06
7	O	0.265019	0.581903	5e-06
8	C	0.285975	0.657205	6e-06
9	C	0.243893	0.648636	5e-06
10	N	0.20921	0.60336	0
11	C	0.323341	0.703006	4e-06
12	O	0.314527	0.733712	7e-06
13	C	0.369805	0.713259	0.999999
14	C	0.402741	0.755042	0.999998
15	N	0.396005	0.792133	0
16	H	0.32253	0.562731	1e-06
17	H	0.234946	0.674069	8e-06
18	H	0.436148	0.761009	0.999997
19	C	0.621565	0.323938	0.999995
20	O	0.58202	0.317029	0.999991
21	C	0.65721	0.370108	0.999998
22	C	0.650177	0.404139	0
23	N	0.605911	0.396181	0
24	C	0.702942	0.378303	3e-06
25	O	0.734981	0.418097	5e-06
26	C	0.714025	0.342795	6e-06
27	C	0.756107	0.351364	5e-06
28	N	0.79079	0.39664	0
29	C	0.676659	0.296994	4e-06
30	O	0.685473	0.266288	7e-06
31	C	0.630195	0.286741	0.999999
32	C	0.597259	0.244958	0.999998
33	N	0.603995	0.207867	0
34	H	0.67747	0.437269	1e-06
35	H	0.765054	0.325931	8e-06
36	H	0.563852	0.238991	0.999997
37	C	0.578813	0.422744	0
38	C	0.562063	0.440338	0.876812
39	C	0.538816	0.463386	0.927553
40	C	0.548074	0.495002	0.067288
41	C	0.515918	0.509706	0.068928
42	C	0.484082	0.490294	0.931072
43	C	0.451926	0.504999	0.932713
44	C	0.461185	0.536614	0.072447
45	C	0.437937	0.559662	0.123188
46	C	0.421187	0.577256	0
47	S	0.507626	0.546878	0.206435
48	S	0.492374	0.453122	0.793566
49	H	0.595655	0.405489	0.945754
50	H	0.565491	0.435804	0.725054
51	H	0.576244	0.507289	0.164384
52	H	0.423756	0.492711	0.835618
53	H	0.434509	0.564197	0.274946
54	H	0.404345	0.594512	0.054246
55	C	0.576572	0.154283	0
56	C	0.559018	0.120279	0.876812
57	C	0.536033	0.074445	0.927553
58	C	0.504192	0.052212	0.067288
59	C	0.489659	0.00586	0.068928
60	C	0.509406	0.993682	0.931072
61	C	0.494873	0.947329	0.932713
62	C	0.463032	0.925097	0.072447
63	C	0.440047	0.879263	0.123188
64	C	0.422494	0.845259	0
65	S	0.452368	0.96078	0.206435
66	S	0.546698	0.038762	0.793566
67	H	0.593785	0.188042	0.945754
68	H	0.563549	0.128164	0.725054
69	H	0.491632	0.06784	0.164384
70	H	0.507434	0.931702	0.835618
71	H	0.435516	0.871377	0.274946
72	H	0.405281	0.8115	0.054246
73	C	0.843919	0.422285	0
74	C	0.878222	0.438695	0.876812
75	C	0.924455	0.461481	0.927553
76	C	0.947037	0.452098	0.067288
77	C	0.993727	0.483746	0.068928
78	C	0.005816	0.515336	0.931072
79	C	0.052505	0.546984	0.932713
80	C	0.075087	0.5376	0.072447
81	C	0.12132	0.560387	0.123188
82	C	0.155624	0.576797	0
83	S	0.03931	0.491655	0.206435
84	S	0.960232	0.507427	0.793566
85	H	0.809865	0.405782	0.945754
86	H	0.870264	0.435343	0.725054
87	H	0.931428	0.424183	0.164384
88	H	0.068115	0.574899	0.835618
89	H	0.129278	0.563738	0.274946
90	H	0.189678	0.5933	0.054246
