data_C72H39N9O6_2023-05-11_05:36:06
#******************************************
#
# CIF file created by Zeo++
# Zeo++ is an open source package to
# analyze microporous materials
#
#*******************************************

_cell_length_a		34.4305   
_cell_length_b		34.7291   
_cell_length_c		7   
_cell_angle_alpha		90   
_cell_angle_beta		90   
_cell_angle_gamma		119.624   

_symmetry_space_group_name_H-M		'P1'
_symmetry_Int_Tables_number		1
_symmetry_cell_setting		Monoclinic

loop_
_symmetry_equiv_pos_as_xyz
'+x,+y,+z'

loop_
_atom_site_label
_atom_site_type_symbol
_atom_site_fract_x
_atom_site_fract_y
_atom_site_fract_z
1	C	0.378326	0.67604	0.999995
2	O	0.417775	0.682932	0.999991
3	C	0.342767	0.62998	0.999998
4	C	0.349782	0.59603	0
5	N	0.39394	0.603969	0
6	C	0.297145	0.621805	3e-06
7	O	0.265183	0.582106	5e-06
8	C	0.28609	0.657227	6e-06
9	C	0.244109	0.648679	5e-06
10	N	0.20951	0.603511	0
11	C	0.323366	0.702919	4e-06
12	O	0.314574	0.733551	7e-06
13	C	0.369717	0.713147	0.999999
14	C	0.402575	0.754831	0.999998
15	N	0.395856	0.791833	0
16	H	0.322555	0.56298	1e-06
17	H	0.235185	0.674051	8e-06
18	H	0.435901	0.760783	0.999997
19	C	0.621674	0.32396	0.999995
20	O	0.582225	0.317068	0.999991
21	C	0.657233	0.37002	0.999998
22	C	0.650218	0.40397	0
23	N	0.60606	0.396031	0
24	C	0.702855	0.378195	3e-06
25	O	0.734817	0.417894	5e-06
26	C	0.71391	0.342773	6e-06
27	C	0.755891	0.351321	5e-06
28	N	0.79049	0.396489	0
29	C	0.676634	0.297081	4e-06
30	O	0.685426	0.266449	7e-06
31	C	0.630283	0.286853	0.999999
32	C	0.597425	0.245169	0.999998
33	N	0.604144	0.208167	0
34	H	0.677445	0.43702	1e-06
35	H	0.764815	0.325949	8e-06
36	H	0.564099	0.239217	0.999997
37	C	0.538376	0.461759	0.60698
38	C	0.526444	0.472998	0.46694
39	C	0.512314	0.486414	0.301114
40	C	0.522815	0.485435	0.111006
41	C	0.550793	0.469181	0.039382
42	C	0.583942	0.489191	0.910682
43	C	0.605507	0.461469	0.872482
44	C	0.579028	0.42253	0
45	C	0.547944	0.427506	0.093869
46	C	0.500599	0.503901	0.00394
47	C	0.500888	0.50907	0.801062
48	C	0.500997	0.513245	0.630756
49	C	0.476909	0.51522	0.130534
50	C	0.449693	0.534973	0.110654
51	C	0.413191	0.523668	0.218377
52	C	0.39104	0.5498	0.158413
53	C	0.420972	0.57747	0
54	C	0.45417	0.568462	0.974777
55	N	0.484833	0.504497	0.310252
56	H	0.549212	0.451758	0.730386
57	H	0.594285	0.520837	0.843908
58	H	0.640872	0.479382	0.912102
59	H	0.602034	0.451827	0.72191
60	H	0.523914	0.404378	0.194037
61	H	0.500925	0.516787	0.479714
62	H	0.39994	0.498837	0.329301
63	H	0.356977	0.527694	0.108277
64	H	0.39048	0.570111	0.276766
65	H	0.480693	0.583526	0.870862
66	H	0.472912	0.509921	0.433142
67	C	0.537673	0.075627	0.60698
68	C	0.526468	0.052688	0.46694
69	C	0.513094	0.025418	0.301114
70	C	0.513999	0.036761	0.111006
71	C	0.530121	0.080526	0.039382
72	C	0.509763	0.093408	0.910682
73	C	0.537458	0.14222	0.872482
74	C	0.576787	0.154712	0
75	C	0.572022	0.119073	0.093869
76	C	0.495609	0.996491	0.00394
77	C	0.490412	0.991646	0.801062
78	C	0.486217	0.987612	0.630756
79	C	0.484414	0.96186	0.130534
80	C	0.464769	0.915374	0.110654
81	C	0.476405	0.890542	0.218377
82	C	0.450312	0.842729	0.158413
83	C	0.422281	0.844831	0
84	C	0.431083	0.88656	0.974777
85	N	0.495129	0.980328	0.310252
86	H	0.547641	0.096255	0.730386
87	H	0.477885	0.072216	0.843908
88	H	0.519191	0.159371	0.912102
89	H	0.547173	0.148358	0.72191
90	H	0.595443	0.118291	0.194037
91	H	0.482658	0.984025	0.479714
92	H	0.501457	0.902098	0.329301
93	H	0.472783	0.831025	0.108277
94	H	0.429906	0.822018	0.276766
95	H	0.415745	0.897806	0.870862
96	H	0.489769	0.963171	0.433142
97	C	0.923257	0.461927	0.60698
98	C	0.946393	0.473627	0.46694
99	C	0.973898	0.487482	0.301114
100	C	0.962493	0.477118	0.111006
101	C	0.918392	0.449607	0.039382
102	C	0.905601	0.416715	0.910682
103	C	0.856341	0.395625	0.872482
104	C	0.843491	0.422072	0
105	C	0.87934	0.452735	0.093869
106	C	0.003098	0.498921	0.00394
107	C	0.008005	0.498597	0.801062
108	C	0.012092	0.498457	0.630756
109	C	0.037983	0.522234	0.130534
110	C	0.084844	0.548966	0.110654
111	C	0.10971	0.585104	0.218377
112	C	0.157954	0.606785	0.158413
113	C	0.156053	0.577012	0
114	C	0.114054	0.544292	0.974777
115	N	0.019343	0.514488	0.310252
116	H	0.902453	0.4513	0.730386
117	H	0.927136	0.406261	0.843908
118	H	0.839243	0.36056	0.912102
119	H	0.850099	0.399128	0.72191
120	H	0.879949	0.476644	0.194037
121	H	0.015723	0.498502	0.479714
122	H	0.097909	0.598379	0.329301
123	H	0.169545	0.640594	0.108277
124	H	0.17892	0.607185	0.276766
125	H	0.102868	0.517982	0.870862
126	H	0.036625	0.526222	0.433142
