data_C96H48N6O6S9_2023-05-10_22:17:29
#******************************************
#
# CIF file created by Zeo++
# Zeo++ is an open source package to
# analyze microporous materials
#
#*******************************************

_cell_length_a		39.3156   
_cell_length_b		39.6141   
_cell_length_c		7   
_cell_angle_alpha		90   
_cell_angle_beta		90   
_cell_angle_gamma		119.671   

_symmetry_space_group_name_H-M		'P1'
_symmetry_Int_Tables_number		1
_symmetry_cell_setting		Monoclinic

loop_
_symmetry_equiv_pos_as_xyz
'+x,+y,+z'

loop_
_atom_site_label
_atom_site_type_symbol
_atom_site_fract_x
_atom_site_fract_y
_atom_site_fract_z
1	C	0.372743	0.674888	0.999995
2	O	0.407297	0.680933	0.999991
3	C	0.341565	0.634489	0.999998
4	C	0.34768	0.604712	0
5	N	0.386358	0.611676	0
6	C	0.301605	0.627319	3e-06
7	O	0.273582	0.5925	5e-06
8	C	0.291952	0.658388	6e-06
9	C	0.255181	0.65089	5e-06
10	N	0.224843	0.611274	0
11	C	0.324635	0.698463	4e-06
12	O	0.31696	0.72533	7e-06
13	C	0.365235	0.707434	0.999999
14	C	0.394044	0.743994	0.999998
15	N	0.38819	0.776448	0
16	H	0.323809	0.575724	1e-06
17	H	0.247386	0.673144	8e-06
18	H	0.423234	0.749215	0.999997
19	C	0.627257	0.325112	0.999995
20	O	0.592703	0.319067	0.999991
21	C	0.658435	0.365511	0.999998
22	C	0.65232	0.395288	0
23	N	0.613642	0.388324	0
24	C	0.698395	0.372681	3e-06
25	O	0.726418	0.4075	5e-06
26	C	0.708048	0.341612	6e-06
27	C	0.744819	0.34911	5e-06
28	N	0.775157	0.388726	0
29	C	0.675365	0.301537	4e-06
30	O	0.68304	0.27467	7e-06
31	C	0.634765	0.292566	0.999999
32	C	0.605956	0.256006	0.999998
33	N	0.61181	0.223552	0
34	H	0.676191	0.424276	1e-06
35	H	0.752614	0.326856	8e-06
36	H	0.576766	0.250785	0.999997
37	C	0.452615	0.533076	0.091923
38	C	0.457524	0.513258	0.977803
39	C	0.463486	0.489744	0.841836
40	C	0.448377	0.480747	0.659099
41	C	0.423418	0.493595	0.579718
42	C	0.430632	0.519459	0.440179
43	C	0.395727	0.52225	0.402264
44	C	0.392933	0.54707	0.261836
45	C	0.362541	0.555201	0.253732
46	S	0.367585	0.585866	0.069414
47	C	0.41001	0.588433	0
48	C	0.420708	0.566792	0.112
49	C	0.367282	0.497418	0.520751
50	C	0.381902	0.476466	0.646108
51	C	0.460993	0.457068	0.559959
52	C	0.44871	0.442484	0.369526
53	C	0.438139	0.430326	0.210743
54	C	0.485534	0.44885	0.669251
55	C	0.504742	0.427095	0.628424
56	C	0.521633	0.428981	0.458473
57	C	0.539141	0.404118	0.455515
58	C	0.559146	0.399359	0.295675
59	C	0.568937	0.370339	0.282942
60	S	0.592614	0.372279	0.073986
61	C	0.58999	0.411567	0
62	C	0.57168	0.423451	0.128421
63	C	0.53305	0.387008	0.62775
64	C	0.511024	0.399882	0.75559
65	S	0.491667	0.469245	0.893262
66	H	0.448369	0.550738	0.193042
67	H	0.458139	0.53577	0.36606
68	H	0.337404	0.544978	0.346801
69	H	0.446967	0.565028	0.087293
70	H	0.337669	0.492301	0.527737
71	H	0.379743	0.48257	0.796641
72	H	0.365145	0.445104	0.620751
73	H	0.428635	0.419465	0.070152
74	H	0.522663	0.446538	0.338258
75	H	0.563387	0.347675	0.384852
76	H	0.567641	0.448228	0.10412
77	H	0.542546	0.366956	0.673153
78	H	0.483111	0.37509	0.799904
79	H	0.52852	0.414733	0.881696
80	C	0.466688	0.920069	0.091923
81	C	0.486558	0.944612	0.977803
82	C	0.510133	0.973868	0.841836
83	C	0.519268	0.967859	0.659099
84	C	0.506531	0.930407	0.579718
85	C	0.480509	0.911851	0.440179
86	C	0.477936	0.87455	0.402264
87	C	0.453029	0.84713	0.261836
88	C	0.445064	0.808989	0.253732
89	S	0.414235	0.783517	0.069414
90	C	0.411375	0.822933	0
91	C	0.433038	0.855014	0.112
92	C	0.503063	0.871081	0.520751
93	C	0.524008	0.906355	0.646108
94	C	0.542966	0.003863	0.559959
95	C	0.557694	0.0062	0.369526
96	C	0.569974	0.007821	0.210743
97	C	0.551057	0.036301	0.669251
98	C	0.572778	0.076913	0.628424
99	C	0.570772	0.091748	0.458473
100	C	0.595626	0.133766	0.455515
101	C	0.600272	0.158281	0.295675
102	C	0.629353	0.196796	0.282942
103	S	0.627247	0.21829	0.073986
104	C	0.587809	0.176666	0
105	C	0.575995	0.146749	0.128421
106	C	0.61285	0.144738	0.62775
107	C	0.600066	0.11016	0.75559
108	S	0.530534	0.022108	0.893262
109	H	0.448978	0.898323	0.193042
110	H	0.463946	0.922858	0.36606
111	H	0.455497	0.79428	0.346801
112	H	0.434637	0.882742	0.087293
113	H	0.508398	0.846871	0.527737
114	H	0.517892	0.898156	0.796641
115	H	0.555614	0.920934	0.620751
116	H	0.580944	0.009208	0.070152
117	H	0.553133	0.075327	0.338258
118	H	0.65215	0.21382	0.384852
119	H	0.551139	0.118139	0.10412
120	H	0.632924	0.17405	0.673153
121	H	0.625148	0.107177	0.799904
122	H	0.585035	0.112715	0.881696
123	C	0.080089	0.546252	0.091923
124	C	0.055309	0.541527	0.977803
125	C	0.025773	0.535786	0.841836
126	C	0.031746	0.550791	0.659099
127	C	0.069443	0.575396	0.579718
128	C	0.088251	0.568088	0.440179
129	C	0.125728	0.602597	0.402264
130	C	0.15343	0.605198	0.261836
131	C	0.191787	0.635207	0.253732
132	S	0.217572	0.630015	0.069414
133	C	0.178007	0.588032	0
134	C	0.145645	0.577592	0.112
135	C	0.129046	0.630899	0.520751
136	C	0.093482	0.616576	0.646108
137	C	0.995433	0.538467	0.559959
138	C	0.992988	0.550714	0.369526
139	C	0.991279	0.561251	0.210743
140	C	0.962801	0.514247	0.669251
141	C	0.921872	0.49539	0.628424
142	C	0.906987	0.478669	0.458473
143	C	0.864625	0.461514	0.455515
144	C	0.839974	0.441757	0.295675
145	C	0.801102	0.432263	0.282942
146	S	0.77953	0.408829	0.073986
147	C	0.821593	0.411165	0
148	C	0.851717	0.429199	0.128421
149	C	0.853492	0.467652	0.62775
150	C	0.888302	0.489355	0.75559
151	S	0.977191	0.508045	0.893262
152	H	0.102045	0.550336	0.193042
153	H	0.077306	0.54077	0.36606
154	H	0.206491	0.660141	0.346801
155	H	0.117788	0.551628	0.087293
156	H	0.153325	0.660226	0.527737
157	H	0.101757	0.618671	0.796641
158	H	0.078633	0.63336	0.620751
159	H	0.989813	0.570725	0.070152
160	H	0.923595	0.477533	0.338258
161	H	0.783855	0.437903	0.384852
162	H	0.880613	0.433031	0.10412
163	H	0.823922	0.458392	0.673153
164	H	0.891133	0.517131	0.799904
165	H	0.885836	0.47195	0.881696
