data_C84H48N6O6S12_2023-05-11_02:09:48
#******************************************
#
# CIF file created by Zeo++
# Zeo++ is an open source package to
# analyze microporous materials
#
#*******************************************

_cell_length_a		40.0062   
_cell_length_b		40.3048   
_cell_length_c		7   
_cell_angle_alpha		90   
_cell_angle_beta		90   
_cell_angle_gamma		119.676   

_symmetry_space_group_name_H-M		'P1'
_symmetry_Int_Tables_number		1
_symmetry_cell_setting		Monoclinic

loop_
_symmetry_equiv_pos_as_xyz
'+x,+y,+z'

loop_
_atom_site_label
_atom_site_type_symbol
_atom_site_fract_x
_atom_site_fract_y
_atom_site_fract_z
1	C	0.372064	0.674747	0.999995
2	O	0.406021	0.680689	0.999991
3	C	0.341419	0.635039	0.999998
4	C	0.347425	0.60577	0
5	N	0.385437	0.612615	0
6	C	0.302148	0.627991	3e-06
7	O	0.274605	0.593766	5e-06
8	C	0.292666	0.658529	6e-06
9	C	0.256528	0.65116	5e-06
10	N	0.22671	0.61222	0
11	C	0.324788	0.69792	4e-06
12	O	0.317249	0.724328	7e-06
13	C	0.364689	0.706738	0.999999
14	C	0.393005	0.742674	0.999998
15	N	0.387256	0.774573	0
16	H	0.323963	0.577277	1e-06
17	H	0.248871	0.673033	8e-06
18	H	0.421691	0.747805	0.999997
19	C	0.627936	0.325253	0.999995
20	O	0.593979	0.319311	0.999991
21	C	0.658581	0.364961	0.999998
22	C	0.652575	0.39423	0
23	N	0.614563	0.387385	0
24	C	0.697852	0.372009	3e-06
25	O	0.725395	0.406234	5e-06
26	C	0.707334	0.341471	6e-06
27	C	0.743472	0.34884	5e-06
28	N	0.77329	0.38778	0
29	C	0.675212	0.30208	4e-06
30	O	0.682751	0.275672	7e-06
31	C	0.635311	0.293262	0.999999
32	C	0.606995	0.257326	0.999998
33	N	0.612744	0.225427	0
34	H	0.676037	0.422723	1e-06
35	H	0.751129	0.326967	8e-06
36	H	0.578309	0.252195	0.999997
37	C	0.440103	0.467133	0.544665
38	C	0.475884	0.477235	0.48446
39	C	0.50778	0.503416	0.606784
40	C	0.542895	0.532112	0.559596
41	C	0.559206	0.547471	0.371626
42	C	0.596461	0.557848	0.344478
43	C	0.537289	0.553848	0.226536
44	C	0.540148	0.548644	0.033671
45	S	0.509935	0.557809	0.899975
46	C	0.492027	0.56891	0.097728
47	C	0.462815	0.580084	0.087222
48	C	0.456205	0.601711	0.220176
49	C	0.424854	0.607437	0.169413
50	C	0.408677	0.58977	0
51	S	0.430227	0.566782	0.902583
52	C	0.509755	0.566043	0.261858
53	C	0.482164	0.460609	0.314761
54	C	0.46097	0.453428	0.149204
55	S	0.475862	0.434224	0.974038
56	C	0.51151	0.435267	0.115349
57	C	0.537396	0.422595	0.045041
58	C	0.533714	0.401512	0.881822
59	C	0.564961	0.394303	0.855671
60	C	0.591323	0.41023	0
61	S	0.579319	0.433328	0.163913
62	C	0.51097	0.449579	0.294512
63	H	0.414698	0.446759	0.466728
64	H	0.434976	0.478828	0.673897
65	H	0.501778	0.498252	0.75925
66	H	0.562547	0.546615	0.677893
67	H	0.613358	0.553755	0.453648
68	H	0.611321	0.570728	0.211917
69	H	0.558032	0.539176	0.963468
70	H	0.47325	0.613294	0.348432
71	H	0.415115	0.623599	0.253332
72	H	0.502832	0.571768	0.403258
73	H	0.437707	0.459085	0.120157
74	H	0.509611	0.391414	0.784141
75	H	0.567506	0.378366	0.737443
76	H	0.530737	0.452555	0.407696
77	C	0.532993	0.973194	0.544665
78	C	0.522617	0.998561	0.48446
79	C	0.496119	0.004107	0.606784
80	C	0.467074	0.010339	0.559596
81	C	0.451544	0.011219	0.371626
82	C	0.440881	0.037768	0.344478
83	C	0.445283	0.983198	0.226536
84	C	0.45049	0.991196	0.033671
85	S	0.441483	0.9522	0.899975
86	C	0.430451	0.923452	0.097728
87	C	0.41942	0.883448	0.087222
88	C	0.397745	0.855423	0.220176
89	C	0.392199	0.818716	0.169413
90	C	0.410046	0.820264	0
91	S	0.43299	0.864422	0.902583
92	C	0.433215	0.94384	0.261858
93	C	0.539272	0.021291	0.314761
94	C	0.546621	0.007457	0.149204
95	S	0.565809	0.04127	0.974038
96	C	0.564529	0.075503	0.115349
97	C	0.577087	0.113704	0.045041
98	C	0.598282	0.131006	0.881822
99	C	0.605319	0.169084	0.855671
100	C	0.589153	0.179342	0
101	S	0.566036	0.144519	0.163913
102	C	0.550161	0.06075	0.294512
103	H	0.553619	0.968301	0.466728
104	H	0.521283	0.956504	0.673897
105	H	0.501343	0.003298	0.75925
106	H	0.452382	0.015374	0.677893
107	H	0.444882	0.058553	0.453648
108	H	0.42785	0.039673	0.211917
109	H	0.459881	0.018298	0.963468
110	H	0.386003	0.860779	0.348432
111	H	0.376032	0.793023	0.253332
112	H	0.427511	0.931302	0.403258
113	H	0.541092	0.978821	0.120157
114	H	0.608579	0.117192	0.784141
115	H	0.621306	0.187436	0.737443
116	H	0.547044	0.077351	0.407696
117	C	0.026307	0.55908	0.544665
118	C	0.000901	0.523613	0.48446
119	C	0.995504	0.491886	0.606784
120	C	0.989434	0.456957	0.559596
121	C	0.988652	0.440719	0.371626
122	C	0.96206	0.403792	0.344478
123	C	0.016831	0.462362	0.226536
124	C	0.008765	0.459568	0.033671
125	S	0.047984	0.4894	0.899975
126	C	0.076924	0.507046	0.097728
127	C	0.117168	0.535875	0.087222
128	C	0.145453	0.542274	0.220176
129	C	0.182349	0.573255	0.169413
130	C	0.180679	0.589375	0
131	S	0.136186	0.568203	0.902583
132	C	0.056433	0.489525	0.261858
133	C	0.977966	0.517508	0.314761
134	C	0.991811	0.538523	0.149204
135	S	0.957731	0.523914	0.974038
136	C	0.923363	0.488638	0.115349
137	C	0.88492	0.46311	0.045041
138	C	0.867407	0.46689	0.881822
139	C	0.829123	0.436021	0.855671
140	C	0.818927	0.409836	0
141	S	0.854047	0.421562	0.163913
142	C	0.938271	0.489079	0.294512
143	H	0.031086	0.584348	0.466728
144	H	0.043143	0.564076	0.673897
145	H	0.996282	0.497858	0.75925
146	H	0.984473	0.437419	0.677893
147	H	0.941162	0.387101	0.453648
148	H	0.960231	0.389006	0.211917
149	H	0.981489	0.441934	0.963468
150	H	0.14015	0.525335	0.348432
151	H	0.208255	0.582786	0.253332
152	H	0.06906	0.496337	0.403258
153	H	0.020603	0.561502	0.120157
154	H	0.881212	0.490802	0.784141
155	H	0.81059	0.433607	0.737443
156	H	0.921621	0.469503	0.407696
