data_C75H51N9O6_2023-05-11_00:22:13
#******************************************
#
# CIF file created by Zeo++
# Zeo++ is an open source package to
# analyze microporous materials
#
#*******************************************

_cell_length_a		35.8177   
_cell_length_b		36.1163   
_cell_length_c		7   
_cell_angle_alpha		90   
_cell_angle_beta		90   
_cell_angle_gamma		119.639   

_symmetry_space_group_name_H-M		'P1'
_symmetry_Int_Tables_number		1
_symmetry_cell_setting		Monoclinic

loop_
_symmetry_equiv_pos_as_xyz
'+x,+y,+z'

loop_
_atom_site_label
_atom_site_type_symbol
_atom_site_fract_x
_atom_site_fract_y
_atom_site_fract_z
1	C	0.376586	0.675681	0.999995
2	O	0.414509	0.68231	0.999991
3	C	0.342391	0.631384	0.999998
4	C	0.349125	0.598734	0
5	N	0.391576	0.606369	0
6	C	0.298534	0.623522	3e-06
7	O	0.267799	0.585342	5e-06
8	C	0.287917	0.657589	6e-06
9	C	0.24756	0.649368	5e-06
10	N	0.214288	0.605928	0
11	C	0.323762	0.701532	4e-06
12	O	0.315319	0.730991	7e-06
13	C	0.368321	0.711368	0.999999
14	C	0.399918	0.751457	0.999998
15	N	0.393469	0.787042	0
16	H	0.322943	0.566948	1e-06
17	H	0.238988	0.673769	8e-06
18	H	0.431955	0.757181	0.999997
19	C	0.623414	0.324319	0.999995
20	O	0.585491	0.31769	0.999991
21	C	0.657609	0.368616	0.999998
22	C	0.650875	0.401266	0
23	N	0.608424	0.393631	0
24	C	0.701466	0.376478	3e-06
25	O	0.732201	0.414658	5e-06
26	C	0.712083	0.342411	6e-06
27	C	0.75244	0.350632	5e-06
28	N	0.785712	0.394072	0
29	C	0.676238	0.298468	4e-06
30	O	0.684681	0.269009	7e-06
31	C	0.631679	0.288632	0.999999
32	C	0.600082	0.248543	0.999998
33	N	0.606531	0.212958	0
34	H	0.677057	0.433052	1e-06
35	H	0.761012	0.326231	8e-06
36	H	0.568045	0.242819	0.999997
37	C	0.554482	0.449821	0.624161
38	C	0.543252	0.445836	0.438595
39	C	0.56227	0.431046	0.293986
40	C	0.580155	0.406346	0.325753
41	C	0.595154	0.396485	0.141911
42	C	0.582447	0.419116	0
43	C	0.56366	0.43842	0.088712
44	C	0.510584	0.457856	0.388244
45	C	0.469418	0.427244	0.332697
46	N	0.437998	0.435892	0.282293
47	C	0.447685	0.477277	0.285311
48	C	0.412952	0.486511	0.229767
49	C	0.372788	0.459292	0.290132
50	C	0.42046	0.522873	0.111784
51	C	0.446535	0.536462	0.958011
52	C	0.447148	0.574712	0.869991
53	C	0.417553	0.580884	0
54	C	0.402696	0.551127	0.136788
55	C	0.488086	0.510043	0.339427
56	C	0.519795	0.50018	0.390818
57	H	0.539999	0.46076	0.730458
58	H	0.578625	0.442572	0.676991
59	H	0.583332	0.394243	0.462241
60	H	0.629929	0.409131	0.144362
61	H	0.578652	0.362098	0.116338
62	H	0.551236	0.456933	0.020694
63	H	0.460128	0.393694	0.326894
64	H	0.365827	0.431608	0.376562
65	H	0.345583	0.463272	0.252878
66	H	0.464388	0.522001	0.90151
67	H	0.479664	0.602171	0.871893
68	H	0.435036	0.567911	0.72329
69	H	0.380983	0.548045	0.250487
70	H	0.49505	0.542896	0.342679
71	H	0.551467	0.525536	0.432047
72	C	0.549572	0.103431	0.624161
73	C	0.553657	0.096291	0.438595
74	C	0.568378	0.129766	0.293986
75	C	0.593065	0.17196	0.325753
76	C	0.602864	0.196572	0.141911
77	C	0.580218	0.161548	0
78	C	0.56096	0.12382	0.088712
79	C	0.541818	0.052077	0.388244
80	C	0.572872	0.041789	0.332697
81	N	0.564411	0.002156	0.282293
82	C	0.522761	0.970643	0.285311
83	C	0.513736	0.927155	0.229767
84	C	0.541374	0.914487	0.290132
85	C	0.477149	0.898475	0.111784
86	C	0.463307	0.910751	0.958011
87	C	0.424872	0.873384	0.869991
88	C	0.418886	0.838013	0
89	C	0.448891	0.852873	0.136788
90	C	0.489548	0.978037	0.339427
91	C	0.499227	0.019161	0.390818
92	H	0.538687	0.078261	0.730458
93	H	0.55668	0.134485	0.676991
94	H	0.605202	0.187115	0.462241
95	H	0.589907	0.218381	0.144362
96	H	0.637532	0.214403	0.116338
97	H	0.54245	0.093164	0.020694
98	H	0.606647	0.065915	0.326894
99	H	0.569238	0.935093	0.376562
100	H	0.537573	0.883654	0.252878
101	H	0.477706	0.942749	0.90151
102	H	0.397049	0.878255	0.871893
103	H	0.431793	0.868168	0.72329
104	H	0.452145	0.834476	0.250487
105	H	0.456491	0.952304	0.342679
106	H	0.473523	0.025287	0.432047
107	C	0.895279	0.446087	0.624161
108	C	0.902424	0.457213	0.438595
109	C	0.868684	0.438527	0.293986
110	C	0.826113	0.421033	0.325753
111	C	0.801315	0.406283	0.141911
112	C	0.836668	0.418676	0
113	C	0.874712	0.4371	0.088712
114	C	0.946931	0.489407	0.388244
115	C	0.957043	0.530307	0.332697
116	N	0.996924	0.561292	0.282293
117	C	0.028886	0.55142	0.285311
118	C	0.072644	0.585674	0.229767
119	C	0.085171	0.62556	0.290132
120	C	0.101724	0.577992	0.111784
121	C	0.089491	0.552127	0.958011
122	C	0.127313	0.551244	0.869991
123	C	0.162894	0.580443	0
124	C	0.147746	0.59534	0.136788
125	C	0.021699	0.51126	0.339427
126	C	0.980311	0.479998	0.390818
127	H	0.920647	0.460319	0.730458
128	H	0.864028	0.422282	0.676991
129	H	0.810799	0.417981	0.462241
130	H	0.779497	0.371828	0.144362
131	H	0.783149	0.422839	0.116338
132	H	0.905647	0.449242	0.020694
133	H	0.932558	0.53973	0.326894
134	H	0.064267	0.632639	0.376562
135	H	0.116177	0.652414	0.252878
136	H	0.057238	0.53459	0.90151
137	H	0.12262	0.518914	0.871893
138	H	0.132503	0.563261	0.72329
139	H	0.166205	0.616819	0.250487
140	H	0.047792	0.50414	0.342679
141	H	0.974343	0.448517	0.432047
