data_C102H72N6O6S3_2023-05-10_23:08:27
#******************************************
#
# CIF file created by Zeo++
# Zeo++ is an open source package to
# analyze microporous materials
#
#*******************************************

_cell_length_a		46.1221   
_cell_length_b		46.4206   
_cell_length_c		7   
_cell_angle_alpha		90   
_cell_angle_beta		90   
_cell_angle_gamma		119.719   

_symmetry_space_group_name_H-M		'P1'
_symmetry_Int_Tables_number		1
_symmetry_cell_setting		Monoclinic

loop_
_symmetry_equiv_pos_as_xyz
'+x,+y,+z'

loop_
_atom_site_label
_atom_site_type_symbol
_atom_site_fract_x
_atom_site_fract_y
_atom_site_fract_z
1	C	0.366934	0.673686	0.999995
2	O	0.396393	0.678847	0.999991
3	C	0.340323	0.639194	0.999998
4	C	0.345511	0.613771	0
5	N	0.378487	0.619716	0
6	C	0.306255	0.633072	3e-06
7	O	0.282338	0.603344	5e-06
8	C	0.298052	0.659598	6e-06
9	C	0.266702	0.653197	5e-06
10	N	0.240808	0.619373	0
11	C	0.325945	0.693814	4e-06
12	O	0.319425	0.716753	7e-06
13	C	0.360561	0.701473	0.999999
14	C	0.385149	0.732688	0.999998
15	N	0.380186	0.760396	0
16	H	0.325139	0.589021	1e-06
17	H	0.260075	0.672197	8e-06
18	H	0.410036	0.737145	0.999997
19	C	0.633066	0.326314	0.999995
20	O	0.603607	0.321153	0.999991
21	C	0.659677	0.360806	0.999998
22	C	0.654489	0.386229	0
23	N	0.621513	0.380284	0
24	C	0.693745	0.366928	3e-06
25	O	0.717662	0.396656	5e-06
26	C	0.701948	0.340402	6e-06
27	C	0.733298	0.346803	5e-06
28	N	0.759192	0.380627	0
29	C	0.674055	0.306186	4e-06
30	O	0.680575	0.283247	7e-06
31	C	0.639439	0.298527	0.999999
32	C	0.614851	0.267312	0.999998
33	N	0.619814	0.239604	0
34	H	0.674861	0.410979	1e-06
35	H	0.739925	0.327803	8e-06
36	H	0.589964	0.262855	0.999997
37	C	0.482118	0.501004	0.546262
38	C	0.472769	0.511717	0.391845
39	C	0.482899	0.506933	0.205066
40	C	0.460819	0.485532	0.071101
41	S	0.480409	0.485271	0.864273
42	C	0.51903	0.513865	0.951804
43	C	0.548383	0.524683	0.836716
44	C	0.55823	0.553081	0.73952
45	C	0.566901	0.506881	0.825969
46	C	0.560091	0.478919	0.919764
47	C	0.58417	0.468435	0.87278
48	C	0.585346	0.43991	0.943593
49	C	0.563884	0.416778	0.065821
50	C	0.573774	0.392252	0.100658
51	C	0.601371	0.400128	0
52	C	0.611947	0.431382	0.888451
53	C	0.606051	0.490577	0.747937
54	C	0.597463	0.517151	0.704995
55	C	0.516458	0.523121	0.136301
56	C	0.45261	0.527772	0.411993
57	C	0.44474	0.543115	0.275198
58	C	0.423979	0.555916	0.350667
59	C	0.410698	0.573671	0.247666
60	C	0.391264	0.585612	0.312851
61	C	0.383828	0.601774	0.160054
62	C	0.398629	0.599872	0
63	C	0.417433	0.581753	0.037126
64	C	0.419221	0.548231	0.537592
65	C	0.436837	0.529795	0.596319
66	H	0.496988	0.488871	0.53148
67	H	0.475511	0.503766	0.690974
68	H	0.434055	0.469957	0.084077
69	H	0.544467	0.566452	0.747842
70	H	0.580063	0.564022	0.648034
71	H	0.539604	0.465515	0.017665
72	H	0.542193	0.415845	0.130664
73	H	0.560569	0.371099	0.193463
74	H	0.636784	0.450958	0.932245
75	H	0.611609	0.426924	0.734611
76	H	0.62713	0.490103	0.684253
77	H	0.618006	0.541476	0.747031
78	H	0.592071	0.517194	0.552713
79	H	0.537892	0.540881	0.217827
80	H	0.452541	0.54599	0.127587
81	H	0.382102	0.583863	0.456731
82	H	0.368677	0.613383	0.175883
83	H	0.407594	0.559131	0.950975
84	H	0.444167	0.597658	0.009711
85	H	0.404946	0.554184	0.636046
86	H	0.45557	0.543773	0.705755
87	H	0.418941	0.505146	0.650608
88	C	0.498746	0.981113	0.546262
89	C	0.488046	0.961198	0.391845
90	C	0.492791	0.975991	0.205066
91	C	0.514394	0.975395	0.071101
92	S	0.514545	0.995064	0.864273
93	C	0.48563	0.004897	0.951804
94	C	0.474607	0.023222	0.836716
95	C	0.446049	0.00474	0.73952
96	C	0.492369	0.05927	0.825969
97	C	0.520471	0.080327	0.919764
98	C	0.530857	0.114609	0.87278
99	C	0.55948	0.144139	0.943593
100	C	0.582817	0.145875	0.065821
101	C	0.607377	0.180062	0.100658
102	C	0.599317	0.199573	0
103	C	0.567888	0.178974	0.888451
104	C	0.508512	0.114272	0.747937
105	C	0.481888	0.079338	0.704995
106	C	0.476355	0.993145	0.136301
107	C	0.472047	0.92526	0.411993
108	C	0.456693	0.902207	0.275198
109	C	0.443962	0.868908	0.350667
110	C	0.426218	0.838095	0.247666
111	C	0.414343	0.806967	0.312851
112	C	0.398164	0.783529	0.160054
113	C	0.399989	0.800084	0
114	C	0.418068	0.836732	0.037126
115	C	0.451702	0.871836	0.537592
116	C	0.470105	0.907622	0.596319
117	H	0.510839	0.007911	0.53148
118	H	0.496011	0.97182	0.690974
119	H	0.530177	0.964365	0.084077
120	H	0.432708	0.977809	0.747842
121	H	0.434945	0.015492	0.648034
122	H	0.53404	0.073358	0.017665
123	H	0.583876	0.125312	0.130664
124	H	0.628681	0.188012	0.193463
125	H	0.548101	0.184116	0.932245
126	H	0.572364	0.183072	0.734611
127	H	0.508868	0.135628	0.684253
128	H	0.457359	0.075504	0.747031
129	H	0.481876	0.073954	0.552713
130	H	0.458409	0.996721	0.217827
131	H	0.453763	0.907077	0.127587
132	H	0.416149	0.799628	0.456731
133	H	0.386597	0.756974	0.175883
134	H	0.440828	0.849478	0.950975
135	H	0.401954	0.847405	0.009711
136	H	0.445808	0.851773	0.636046
137	H	0.455971	0.912283	0.705755
138	H	0.494946	0.914401	0.650608
139	C	0.018618	0.517369	0.546262
140	C	0.038666	0.526571	0.391845
141	C	0.023792	0.516561	0.205066
142	C	0.024268	0.538559	0.071101
143	S	0.004527	0.51915	0.864273
144	C	0.994821	0.480724	0.951804
145	C	0.976492	0.451581	0.836716
146	C	0.995203	0.441665	0.73952
147	C	0.940212	0.433334	0.825969
148	C	0.91892	0.440239	0.919764
149	C	0.884454	0.416441	0.87278
150	C	0.854656	0.415437	0.943593
151	C	0.852781	0.436832	0.065821
152	C	0.818331	0.427172	0.100658
153	C	0.798794	0.399785	0
154	C	0.819646	0.389129	0.888451
155	C	0.884918	0.394637	0.747937
156	C	0.92013	0.402996	0.704995
157	C	0.006668	0.48322	0.136301
158	C	0.074825	0.546453	0.411993
159	C	0.098049	0.554164	0.275198
160	C	0.131541	0.574661	0.350667
161	C	0.162566	0.58772	0.247666
162	C	0.193875	0.606907	0.312851
163	C	0.21749	0.614183	0.160054
164	C	0.200864	0.599529	0
165	C	0.163981	0.581001	0.037126
166	C	0.128558	0.579419	0.537592
167	C	0.092539	0.562069	0.596319
168	H	0.991654	0.502704	0.53148
169	H	0.02796	0.523899	0.690974
170	H	0.035249	0.565164	0.084077
171	H	0.022307	0.455225	0.747842
172	H	0.984474	0.419971	0.648034
173	H	0.925837	0.460613	0.017665
174	H	0.873413	0.458329	0.130664
175	H	0.810232	0.440375	0.193463
176	H	0.814597	0.364412	0.932245
177	H	0.815508	0.38949	0.734611
178	H	0.863483	0.373755	0.684253
179	H	0.924116	0.382505	0.747031
180	H	0.925534	0.408338	0.552713
181	H	0.003181	0.461884	0.217827
182	H	0.093178	0.546419	0.127587
183	H	0.201231	0.615994	0.456731
184	H	0.244207	0.629128	0.175883
185	H	0.15106	0.590877	0.950975
186	H	0.15336	0.554423	0.009711
187	H	0.148728	0.593528	0.636046
188	H	0.08794	0.54343	0.705755
189	H	0.085595	0.579939	0.650608
