data_C66H36N6O6S9_2023-05-11_02:58:57
#******************************************
#
# CIF file created by Zeo++
# Zeo++ is an open source package to
# analyze microporous materials
#
#*******************************************

_cell_length_a		30.6856   
_cell_length_b		30.9843   
_cell_length_c		7   
_cell_angle_alpha		90   
_cell_angle_beta		90   
_cell_angle_gamma		119.579   

_symmetry_space_group_name_H-M		'P1'
_symmetry_Int_Tables_number		1
_symmetry_cell_setting		Monoclinic

loop_
_symmetry_equiv_pos_as_xyz
'+x,+y,+z'

loop_
_atom_site_label
_atom_site_type_symbol
_atom_site_fract_x
_atom_site_fract_y
_atom_site_fract_z
1	C	0.383807	0.677168	0.999995
2	O	0.428064	0.68489	0.999991
3	C	0.343956	0.625565	0.999998
4	C	0.351862	0.587529	0
5	N	0.401401	0.596423	0
6	C	0.292775	0.616405	3e-06
7	O	0.256954	0.571929	5e-06
8	C	0.280334	0.656091	6e-06
9	C	0.233239	0.646514	5e-06
10	N	0.194463	0.59591	0
11	C	0.322112	0.707282	4e-06
12	O	0.312215	0.741601	7e-06
13	C	0.37411	0.718742	0.999999
14	C	0.410934	0.765442	0.999998
15	N	0.403357	0.806897	0
16	H	0.321346	0.550501	1e-06
17	H	0.223199	0.67494	8e-06
18	H	0.448321	0.772111	0.999997
19	C	0.616193	0.322832	0.999995
20	O	0.571936	0.31511	0.999991
21	C	0.656044	0.374435	0.999998
22	C	0.648138	0.412471	0
23	N	0.598599	0.403577	0
24	C	0.707225	0.383595	3e-06
25	O	0.743046	0.428071	5e-06
26	C	0.719666	0.343909	6e-06
27	C	0.766761	0.353486	5e-06
28	N	0.805537	0.40409	0
29	C	0.677888	0.292718	4e-06
30	O	0.687785	0.258399	7e-06
31	C	0.62589	0.281258	0.999999
32	C	0.589066	0.234558	0.999998
33	N	0.596643	0.193103	0
34	H	0.678654	0.449499	1e-06
35	H	0.776801	0.32506	8e-06
36	H	0.551679	0.227889	0.999997
37	C	0.583268	0.455494	0.645154
38	C	0.560729	0.47148	0.520819
39	C	0.54244	0.504583	0.578723
40	C	0.52336	0.504677	0.756978
41	S	0.503614	0.547313	0.77572
42	C	0.520694	0.567421	0.543929
43	C	0.512169	0.605085	0.460552
44	C	0.52906	0.648415	0.554375
45	C	0.488373	0.599966	0.278067
46	C	0.500314	0.634343	0.131707
47	C	0.467634	0.615162	0.970932
48	C	0.43176	0.566735	0
49	S	0.436524	0.544223	0.214104
50	C	0.540703	0.540852	0.45706
51	C	0.554538	0.453022	0.327886
52	C	0.510583	0.428259	0.222647
53	C	0.518443	0.416543	0.033192
54	C	0.56824	0.433265	0
55	S	0.60526	0.462572	0.189714
56	H	0.589878	0.467648	0.792907
57	H	0.596237	0.429953	0.603677
58	H	0.519105	0.481317	0.878321
59	H	0.548518	0.655511	0.690244
60	H	0.523897	0.678388	0.499911
61	H	0.531669	0.671843	0.13897
62	H	0.470788	0.636027	0.842597
63	H	0.553529	0.547361	0.310025
64	H	0.474174	0.41898	0.280164
65	H	0.489016	0.397196	0.928966
66	C	0.543524	0.125992	0.645154
67	C	0.527641	0.087914	0.520819
68	C	0.49451	0.037054	0.578723
69	C	0.494577	0.018144	0.756978
70	S	0.451873	0.956396	0.77572
71	C	0.431511	0.953301	0.543929
72	C	0.393712	0.907549	0.460552
73	C	0.35	0.881242	0.554375
74	C	0.39906	0.889157	0.278067
75	C	0.364393	0.866846	0.131707
76	C	0.383955	0.853636	0.970932
77	C	0.432952	0.866275	0
78	S	0.455547	0.893295	0.214104
79	C	0.458057	0.999379	0.45706
80	C	0.546252	0.100111	0.327886
81	C	0.571522	0.081315	0.222647
82	C	0.583237	0.100685	0.033192
83	C	0.566002	0.133213	0
84	S	0.536221	0.140663	0.189714
85	H	0.531247	0.12046	0.792907
86	H	0.569096	0.164108	0.603677
87	H	0.518102	0.037111	0.878321
88	H	0.342701	0.893395	0.690244
89	H	0.319906	0.84643	0.499911
90	H	0.326422	0.860585	0.13897
91	H	0.362949	0.836057	0.842597
92	H	0.451404	0.005574	0.310025
93	H	0.58116	0.054609	0.280164
94	H	0.602939	0.090847	0.928966
95	C	0.87243	0.417744	0.645154
96	C	0.910852	0.439837	0.520819
97	C	0.962272	0.457594	0.578723
98	C	0.981285	0.47641	0.756978
99	S	0.043733	0.495523	0.77572
100	C	0.047017	0.478509	0.543929
101	C	0.09334	0.486598	0.460552
102	C	0.120161	0.469574	0.554375
103	C	0.111788	0.510109	0.278067
104	C	0.134514	0.498042	0.131707
105	C	0.147632	0.530433	0.970932
106	C	0.134509	0.566222	0
107	S	0.10715	0.561713	0.214104
108	C	0.000462	0.459001	0.45706
109	C	0.898431	0.446098	0.327886
110	C	0.917116	0.489656	0.222647
111	C	0.897541	0.482004	0.033192
112	C	0.864979	0.432752	0
113	S	0.85774	0.395996	0.189714
114	H	0.878097	0.411123	0.792907
115	H	0.833889	0.40517	0.603677
116	H	0.962015	0.480803	0.878321
117	H	0.108002	0.450325	0.690244
118	H	0.155418	0.474412	0.499911
119	H	0.14113	0.466803	0.13897
120	H	0.165485	0.527146	0.842597
121	H	0.994289	0.446297	0.310025
122	H	0.943888	0.525641	0.280164
123	H	0.907266	0.511188	0.928966
