data_C93H63N9O6S6_2023-05-13_07:41:37
#******************************************
#
# CIF file created by Zeo++
# Zeo++ is an open source package to
# analyze microporous materials
#
#*******************************************

_cell_length_a		47.8112   
_cell_length_b		48.1097   
_cell_length_c		7   
_cell_angle_alpha		90   
_cell_angle_beta		90   
_cell_angle_gamma		119.729   

_symmetry_space_group_name_H-M		'P1'
_symmetry_Int_Tables_number		1
_symmetry_cell_setting		Monoclinic

loop_
_symmetry_equiv_pos_as_xyz
'+x,+y,+z'

loop_
_atom_site_label
_atom_site_type_symbol
_atom_site_fract_x
_atom_site_fract_y
_atom_site_fract_z
1	C	0.365748	0.67344	0.999995
2	O	0.394168	0.678421	0.999991
3	C	0.340071	0.640156	0.999998
4	C	0.345071	0.615623	0
5	N	0.376883	0.62136	0
6	C	0.307205	0.634248	3e-06
7	O	0.284127	0.605561	5e-06
8	C	0.299297	0.659846	6e-06
9	C	0.269053	0.653669	5e-06
10	N	0.244068	0.621029	0
11	C	0.326211	0.692863	4e-06
12	O	0.319926	0.714999	7e-06
13	C	0.359606	0.700255	0.999999
14	C	0.383331	0.730376	0.999998
15	N	0.378549	0.757115	0
16	H	0.325413	0.59174	1e-06
17	H	0.262665	0.672003	8e-06
18	H	0.40734	0.734677	0.999997
19	C	0.634252	0.32656	0.999995
20	O	0.605832	0.321579	0.999991
21	C	0.659929	0.359844	0.999998
22	C	0.654929	0.384377	0
23	N	0.623117	0.37864	0
24	C	0.692795	0.365752	3e-06
25	O	0.715873	0.394439	5e-06
26	C	0.700703	0.340154	6e-06
27	C	0.730947	0.346331	5e-06
28	N	0.755932	0.378971	0
29	C	0.673789	0.307137	4e-06
30	O	0.680074	0.285001	7e-06
31	C	0.640394	0.299745	0.999999
32	C	0.616669	0.269624	0.999998
33	N	0.621451	0.242885	0
34	H	0.674587	0.40826	1e-06
35	H	0.737335	0.327997	8e-06
36	H	0.59266	0.265323	0.999997
37	C	0.468983	0.439499	0.940374
38	C	0.47738	0.462643	0.102826
39	C	0.461499	0.480495	0.11677
40	C	0.467738	0.502006	0.267148
41	C	0.44981	0.519294	0.273974
42	C	0.448248	0.537652	0.1344
43	C	0.427187	0.55001	0.190446
44	C	0.418363	0.570208	0.088066
45	C	0.399416	0.583255	0.144171
46	C	0.396309	0.602211	0
47	C	0.412558	0.603753	0.835858
48	S	0.43181	0.582035	0.856278
49	C	0.415902	0.538764	0.366601
50	C	0.429289	0.518296	0.43874
51	C	0.490755	0.505131	0.40105
52	C	0.500384	0.52772	0.567293
53	N	0.506439	0.488102	0.390218
54	C	0.500307	0.46769	0.242164
55	C	0.519646	0.451824	0.247051
56	C	0.533816	0.444855	0.103516
57	C	0.551629	0.429894	0.176972
58	C	0.569685	0.418131	0.076903
59	C	0.590294	0.407889	0.146458
60	C	0.603691	0.397789	0
61	C	0.593597	0.400206	0.820975
62	S	0.567629	0.414886	0.830011
63	C	0.548629	0.428427	0.368499
64	C	0.528336	0.442531	0.433204
65	H	0.44559	0.433424	0.878323
66	H	0.487072	0.449952	0.827236
67	H	0.466959	0.416933	0.98863
68	H	0.443563	0.477152	0.009645
69	H	0.460528	0.542608	0.998547
70	H	0.388301	0.579295	0.283706
71	H	0.414186	0.616448	0.705175
72	H	0.399552	0.54324	0.449996
73	H	0.409889	0.4939	0.467243
74	H	0.443121	0.528729	0.569113
75	H	0.481942	0.517801	0.678686
76	H	0.50429	0.551194	0.522953
77	H	0.522999	0.53143	0.629695
78	H	0.533204	0.450089	0.954229
79	H	0.595527	0.407827	0.296917
80	H	0.600068	0.39418	0.685455
81	H	0.558827	0.418661	0.467375
82	H	0.50693	0.424622	0.509218
83	H	0.542384	0.463187	0.525977
84	C	0.560547	0.029265	0.940374
85	C	0.537276	0.01457	0.102826
86	C	0.519448	0.981075	0.11677
87	C	0.497828	0.965866	0.267148
88	C	0.480576	0.930902	0.273974
89	C	0.462163	0.911097	0.1344
90	C	0.449876	0.877932	0.190446
91	C	0.429655	0.849099	0.088066
92	C	0.416665	0.817344	0.144171
93	C	0.39766	0.795413	0
94	C	0.396024	0.809983	0.835858
95	S	0.417713	0.850663	0.856278
96	C	0.461223	0.877933	0.366601
97	C	0.48169	0.911557	0.43874
98	C	0.494566	0.985569	0.40105
99	C	0.471845	0.972646	0.567293
100	N	0.51157	0.01805	0.390218
101	C	0.532087	0.032273	0.242164
102	C	0.547903	0.067219	0.247051
103	C	0.554819	0.088194	0.103516
104	C	0.569736	0.120728	0.176972
105	C	0.581442	0.150323	0.076903
106	C	0.591608	0.180934	0.146458
107	C	0.60167	0.204257	0
108	C	0.5993	0.19185	0.820975
109	S	0.584709	0.151512	0.830011
110	C	0.571225	0.119215	0.368499
111	C	0.557181	0.085074	0.433204
112	H	0.566771	0.012122	0.878323
113	H	0.549959	0.036797	0.827236
114	H	0.583204	0.049702	0.98863
115	H	0.522901	0.966624	0.009645
116	H	0.457123	0.918338	0.998547
117	H	0.4207	0.810266	0.283706
118	H	0.383276	0.798971	0.705175
119	H	0.45682	0.857277	0.449996
120	H	0.506277	0.916592	0.467243
121	H	0.471145	0.91489	0.569113
122	H	0.4819	0.964233	0.678686
123	H	0.448268	0.953172	0.522953
124	H	0.467999	0.99137	0.629695
125	H	0.549571	0.082383	0.954229
126	H	0.591641	0.186182	0.296917
127	H	0.605312	0.204256	0.685455
128	H	0.580969	0.139033	0.467375
129	H	0.57527	0.08167	0.509218
130	H	0.536376	0.078453	0.525977
131	C	0.96997	0.53074	0.940374
132	C	0.984843	0.522291	0.102826
133	C	0.018553	0.537934	0.11677
134	C	0.033934	0.531633	0.267148
135	C	0.069114	0.549307	0.273974
136	C	0.089089	0.550755	0.1344
137	C	0.122438	0.571562	0.190446
138	C	0.151482	0.580197	0.088066
139	C	0.183419	0.598904	0.144171
140	C	0.205531	0.60188	0
141	C	0.190918	0.585767	0.835858
142	S	0.149977	0.566805	0.856278
143	C	0.122375	0.582807	0.366601
144	C	0.088521	0.569651	0.43874
145	C	0.014179	0.508804	0.40105
146	C	0.02727	0.499137	0.567293
147	N	0.981491	0.493352	0.390218
148	C	0.967106	0.499541	0.242164
149	C	0.931951	0.48046	0.247051
150	C	0.910865	0.466455	0.103516
151	C	0.878135	0.448882	0.176972
152	C	0.848372	0.43105	0.076903
153	C	0.817599	0.410681	0.146458
154	C	0.794139	0.397458	0
155	C	0.806602	0.407448	0.820975
156	S	0.847162	0.433106	0.830011
157	C	0.879646	0.451862	0.368499
158	C	0.913983	0.471898	0.433204
159	H	0.987139	0.553958	0.878323
160	H	0.962469	0.512755	0.827236
161	H	0.949337	0.532869	0.98863
162	H	0.033036	0.555728	0.009645
163	H	0.08185	0.538558	0.998547
164	H	0.1905	0.609942	0.283706
165	H	0.202038	0.584085	0.705175
166	H	0.143127	0.598987	0.449996
167	H	0.083334	0.589011	0.467243
168	H	0.085234	0.555885	0.569113
169	H	0.035658	0.51747	0.678686
170	H	0.046942	0.495138	0.522953
171	H	0.008502	0.476704	0.629695
172	H	0.916725	0.467032	0.954229
173	H	0.812331	0.405494	0.296917
174	H	0.79412	0.401068	0.685455
175	H	0.859704	0.441809	0.467375
176	H	0.9173	0.493211	0.509218
177	H	0.92074	0.457863	0.525977
