data_C42Cl6H6N6O6S3_2023-05-11_00:50:28
#******************************************
#
# CIF file created by Zeo++
# Zeo++ is an open source package to
# analyze microporous materials
#
#*******************************************

_cell_length_a		30.8202   
_cell_length_b		31.1189   
_cell_length_c		7   
_cell_angle_alpha		90   
_cell_angle_beta		90   
_cell_angle_gamma		119.581   

_symmetry_space_group_name_H-M		'P1'
_symmetry_Int_Tables_number		1
_symmetry_cell_setting		Monoclinic

loop_
_symmetry_equiv_pos_as_xyz
'+x,+y,+z'

loop_
_atom_site_label
_atom_site_type_symbol
_atom_site_fract_x
_atom_site_fract_y
_atom_site_fract_z
1	C	0.383587	0.677123	0.999995
2	O	0.427651	0.684811	0.999991
3	C	0.343908	0.625742	0.999998
4	C	0.351778	0.58787	0
5	N	0.401102	0.596726	0
6	C	0.29295	0.616622	3e-06
7	O	0.257284	0.572337	5e-06
8	C	0.280565	0.656137	6e-06
9	C	0.233675	0.646601	5e-06
10	N	0.195067	0.596215	0
11	C	0.322163	0.707107	4e-06
12	O	0.31231	0.741278	7e-06
13	C	0.373934	0.718517	0.999999
14	C	0.410599	0.765017	0.999998
15	N	0.403056	0.806293	0
16	H	0.321394	0.551001	1e-06
17	H	0.22368	0.674905	8e-06
18	H	0.447823	0.771656	0.999997
19	C	0.616413	0.322877	0.999995
20	O	0.572349	0.315189	0.999991
21	C	0.656092	0.374258	0.999998
22	C	0.648222	0.41213	0
23	N	0.598898	0.403274	0
24	C	0.70705	0.383378	3e-06
25	O	0.742716	0.427663	5e-06
26	C	0.719435	0.343863	6e-06
27	C	0.766325	0.353399	5e-06
28	N	0.804933	0.403785	0
29	C	0.677837	0.292893	4e-06
30	O	0.68769	0.258722	7e-06
31	C	0.626066	0.281483	0.999999
32	C	0.589401	0.234983	0.999998
33	N	0.596944	0.193707	0
34	H	0.678606	0.448999	1e-06
35	H	0.77632	0.325095	8e-06
36	H	0.552177	0.228344	0.999997
37	Cl	0.46323	0.535963	0.514647
38	C	0.483726	0.515916	0.323497
39	C	0.477888	0.521626	0.132285
40	C	0.452549	0.546408	0.060404
41	C	0.431326	0.567165	0
42	C	0.500356	0.499651	0.018297
43	Cl	0.499773	0.500222	0.772564
44	C	0.522034	0.47845	0.128567
45	C	0.547377	0.453664	0.058898
46	C	0.568674	0.432835	0
47	S	0.515179	0.485154	0.367627
48	Cl	0.463629	0.92782	0.514647
49	C	0.483613	0.967912	0.323497
50	C	0.477921	0.956493	0.132285
51	C	0.453216	0.906928	0.060404
52	C	0.432524	0.865415	0
53	C	0.499827	0.000442	0.018297
54	Cl	0.499258	0.999301	0.772564
55	C	0.520962	0.042845	0.128567
56	C	0.545671	0.092418	0.058898
57	C	0.566434	0.134075	0
58	S	0.514279	0.029437	0.367627
59	Cl	0.072366	0.535452	0.514647
60	C	0.031886	0.515406	0.323497
61	C	0.043416	0.521116	0.132285
62	C	0.093459	0.545898	0.060404
63	C	0.135374	0.566654	0
64	C	0.999042	0.499141	0.018297
65	Cl	0.000194	0.499711	0.772564
66	C	0.956229	0.477939	0.128567
67	C	0.906177	0.453153	0.058898
68	C	0.864117	0.432324	0
69	S	0.969767	0.484643	0.367627
