data_C60Cl6H18N6O6_2023-05-10_21:03:44
#******************************************
#
# CIF file created by Zeo++
# Zeo++ is an open source package to
# analyze microporous materials
#
#*******************************************

_cell_length_a		36.1634   
_cell_length_b		36.462   
_cell_length_c		7   
_cell_angle_alpha		90   
_cell_angle_beta		90   
_cell_angle_gamma		119.642   

_symmetry_space_group_name_H-M		'P1'
_symmetry_Int_Tables_number		1
_symmetry_cell_setting		Monoclinic

loop_
_symmetry_equiv_pos_as_xyz
'+x,+y,+z'

loop_
_atom_site_label
_atom_site_type_symbol
_atom_site_fract_x
_atom_site_fract_y
_atom_site_fract_z
1	C	0.376173	0.675596	0.999995
2	O	0.413735	0.682162	0.999991
3	C	0.342302	0.631718	0.999998
4	C	0.348969	0.599375	0
5	N	0.391015	0.606939	0
6	C	0.298864	0.623929	3e-06
7	O	0.26842	0.586111	5e-06
8	C	0.28835	0.657674	6e-06
9	C	0.248379	0.649531	5e-06
10	N	0.215422	0.606502	0
11	C	0.323856	0.701202	4e-06
12	O	0.315496	0.730384	7e-06
13	C	0.36799	0.710946	0.999999
14	C	0.399287	0.750656	0.999998
15	N	0.392903	0.785905	0
16	H	0.323035	0.56789	1e-06
17	H	0.23989	0.673702	8e-06
18	H	0.431018	0.756326	0.999997
19	C	0.623827	0.324404	0.999995
20	O	0.586265	0.317838	0.999991
21	C	0.657698	0.368282	0.999998
22	C	0.651031	0.400625	0
23	N	0.608985	0.393061	0
24	C	0.701136	0.376071	3e-06
25	O	0.73158	0.413889	5e-06
26	C	0.71165	0.342326	6e-06
27	C	0.751621	0.350469	5e-06
28	N	0.784578	0.393498	0
29	C	0.676144	0.298798	4e-06
30	O	0.684504	0.269616	7e-06
31	C	0.63201	0.289054	0.999999
32	C	0.600713	0.249344	0.999998
33	N	0.607097	0.214095	0
34	H	0.676965	0.43211	1e-06
35	H	0.76011	0.326298	8e-06
36	H	0.568982	0.243674	0.999997
37	Cl	0.461982	0.537304	0.650554
38	C	0.472944	0.526548	0.880325
39	C	0.458906	0.540322	0.037544
40	C	0.435955	0.562842	0.016964
41	C	0.416742	0.581694	0
42	C	0.46737	0.532017	0.221373
43	C	0.489593	0.510211	0.248772
44	C	0.504279	0.495801	0.094221
45	C	0.527056	0.473452	0.119675
46	Cl	0.538018	0.462696	0.349446
47	C	0.541094	0.459678	0.962457
48	C	0.564045	0.437158	0.983037
49	C	0.583258	0.418306	0
50	C	0.53263	0.467983	0.778628
51	C	0.510407	0.489789	0.751228
52	C	0.495721	0.504199	0.905779
53	H	0.456809	0.54238	0.345396
54	H	0.495307	0.504605	0.395894
55	H	0.543191	0.45762	0.654605
56	H	0.504693	0.495395	0.604107
57	Cl	0.462352	0.925174	0.650554
58	C	0.473079	0.946687	0.880325
59	C	0.459342	0.919138	0.037544
60	C	0.436882	0.874098	0.016964
61	C	0.41808	0.836394	0
62	C	0.467625	0.935748	0.221373
63	C	0.489373	0.97936	0.248772
64	C	0.503744	0.00818	0.094221
65	C	0.526034	0.052878	0.119675
66	Cl	0.536761	0.07439	0.349446
67	C	0.539771	0.080426	0.962457
68	C	0.562231	0.125467	0.983037
69	C	0.581033	0.163171	0
70	C	0.531488	0.063816	0.778628
71	C	0.50974	0.020205	0.751228
72	C	0.495369	0.991385	0.905779
73	H	0.45729	0.915022	0.345396
74	H	0.494964	0.990573	0.395894
75	H	0.541823	0.084542	0.654605
76	H	0.504149	0.008992	0.604107
77	Cl	0.075005	0.536868	0.650554
78	C	0.053316	0.526111	0.880325
79	C	0.081091	0.539886	0.037544
80	C	0.126502	0.562406	0.016964
81	C	0.164517	0.581258	0
82	C	0.064344	0.531581	0.221373
83	C	0.020373	0.509775	0.248772
84	C	0.991316	0.495365	0.094221
85	C	0.94625	0.473016	0.119675
86	Cl	0.92456	0.46226	0.349446
87	C	0.918474	0.459242	0.962457
88	C	0.873063	0.436722	0.983037
89	C	0.835048	0.41787	0
90	C	0.935221	0.467547	0.778628
91	C	0.979192	0.489352	0.751228
92	C	0.008249	0.503762	0.905779
93	H	0.085241	0.541944	0.345396
94	H	0.009068	0.504168	0.395894
95	H	0.914325	0.457184	0.654605
96	H	0.990497	0.494959	0.604107
