data_C45F6H9N9O6_2023-05-10_22:15:21
#******************************************
#
# CIF file created by Zeo++
# Zeo++ is an open source package to
# analyze microporous materials
#
#*******************************************

_cell_length_a		32.0589   
_cell_length_b		32.3576   
_cell_length_c		7   
_cell_angle_alpha		90   
_cell_angle_beta		90   
_cell_angle_gamma		119.597   

_symmetry_space_group_name_H-M		'P1'
_symmetry_Int_Tables_number		1
_symmetry_cell_setting		Monoclinic

loop_
_symmetry_equiv_pos_as_xyz
'+x,+y,+z'

loop_
_atom_site_label
_atom_site_type_symbol
_atom_site_fract_x
_atom_site_fract_y
_atom_site_fract_z
1	C	0.381648	0.676724	0.999995
2	O	0.424012	0.68412	0.999991
3	C	0.343487	0.627302	0.999998
4	C	0.351041	0.590874	0
5	N	0.398461	0.599393	0
6	C	0.294495	0.61853	3e-06
7	O	0.260193	0.575933	5e-06
8	C	0.2826	0.656538	6e-06
9	C	0.23752	0.647366	5e-06
10	N	0.200388	0.598901	0
11	C	0.322607	0.705565	4e-06
12	O	0.313146	0.738433	7e-06
13	C	0.372381	0.71654	0.999999
14	C	0.407644	0.761267	0.999998
15	N	0.400406	0.80097	0
16	H	0.321819	0.555411	1e-06
17	H	0.227919	0.67459	8e-06
18	H	0.443432	0.767653	0.999997
19	C	0.618352	0.323276	0.999995
20	O	0.575988	0.31588	0.999991
21	C	0.656513	0.372698	0.999998
22	C	0.648959	0.409126	0
23	N	0.601539	0.400607	0
24	C	0.705505	0.38147	3e-06
25	O	0.739807	0.424067	5e-06
26	C	0.7174	0.343462	6e-06
27	C	0.76248	0.352634	5e-06
28	N	0.799612	0.401099	0
29	C	0.677393	0.294435	4e-06
30	O	0.686854	0.261567	7e-06
31	C	0.627619	0.28346	0.999999
32	C	0.592356	0.238733	0.999998
33	N	0.599594	0.19903	0
34	H	0.678181	0.444589	1e-06
35	H	0.772081	0.32541	8e-06
36	H	0.556568	0.232347	0.999997
37	F	0.477879	0.521654	0.676137
38	C	0.489128	0.510642	0.846251
39	N	0.513697	0.486593	0.84329
40	C	0.524842	0.475683	0.015459
41	C	0.550717	0.450355	0.007054
42	C	0.572491	0.429041	0
43	C	0.512515	0.48775	0.188679
44	F	0.524382	0.476133	0.3558
45	C	0.487297	0.512435	0.18776
46	C	0.475219	0.524257	0.012757
47	C	0.449293	0.549636	0.005924
48	C	0.427509	0.570959	0
49	H	0.477477	0.522047	0.322223
50	F	0.477911	0.956448	0.676137
51	C	0.48889	0.978471	0.846251
52	N	0.512866	0.02657	0.84329
53	C	0.523743	0.048389	0.015459
54	C	0.548995	0.099044	0.007054
55	C	0.570245	0.141673	0
56	C	0.511713	0.024255	0.188679
57	F	0.523294	0.047489	0.3558
58	C	0.487102	0.974885	0.18776
59	C	0.475315	0.951241	0.012757
60	C	0.450013	0.900483	0.005924
61	C	0.428754	0.857837	0
62	H	0.477519	0.955661	0.322223
63	F	0.043465	0.521162	0.676137
64	C	0.021237	0.51015	0.846251
65	N	0.972691	0.486101	0.84329
66	C	0.950669	0.475191	0.015459
67	C	0.899543	0.449864	0.007054
68	C	0.856519	0.42855	0
69	C	0.975027	0.487259	0.188679
70	F	0.951578	0.475642	0.3558
71	C	0.024856	0.511943	0.18776
72	C	0.04872	0.523765	0.012757
73	C	0.099949	0.549144	0.005924
74	C	0.142992	0.570468	0
75	H	0.044259	0.521556	0.322223
