data_C78F6H42N6O6_2023-05-10_23:18:21
#******************************************
#
# CIF file created by Zeo++
# Zeo++ is an open source package to
# analyze microporous materials
#
#*******************************************

_cell_length_a		36.3533   
_cell_length_b		36.6519   
_cell_length_c		7   
_cell_angle_alpha		90   
_cell_angle_beta		90   
_cell_angle_gamma		119.644   

_symmetry_space_group_name_H-M		'P1'
_symmetry_Int_Tables_number		1
_symmetry_cell_setting		Monoclinic

loop_
_symmetry_equiv_pos_as_xyz
'+x,+y,+z'

loop_
_atom_site_label
_atom_site_type_symbol
_atom_site_fract_x
_atom_site_fract_y
_atom_site_fract_z
1	C	0.37595	0.67555	0.999995
2	O	0.413315	0.682082	0.999991
3	C	0.342254	0.631898	0.999998
4	C	0.348885	0.599723	0
5	N	0.390711	0.607247	0
6	C	0.299042	0.62415	3e-06
7	O	0.268756	0.586527	5e-06
8	C	0.288585	0.657721	6e-06
9	C	0.248822	0.64962	5e-06
10	N	0.216035	0.606813	0
11	C	0.323907	0.701024	4e-06
12	O	0.315592	0.730055	7e-06
13	C	0.367811	0.710717	0.999999
14	C	0.398946	0.750222	0.999998
15	N	0.392596	0.78529	0
16	H	0.323086	0.5684	1e-06
17	H	0.240379	0.673665	8e-06
18	H	0.430512	0.755863	0.999997
19	C	0.62405	0.32445	0.999995
20	O	0.586685	0.317918	0.999991
21	C	0.657746	0.368102	0.999998
22	C	0.651115	0.400277	0
23	N	0.609289	0.392753	0
24	C	0.700958	0.37585	3e-06
25	O	0.731244	0.413473	5e-06
26	C	0.711415	0.342279	6e-06
27	C	0.751178	0.35038	5e-06
28	N	0.783965	0.393187	0
29	C	0.676093	0.298976	4e-06
30	O	0.684408	0.269945	7e-06
31	C	0.632189	0.289283	0.999999
32	C	0.601054	0.249778	0.999998
33	N	0.607404	0.21471	0
34	H	0.676914	0.4316	1e-06
35	H	0.759621	0.326335	8e-06
36	H	0.569488	0.244137	0.999997
37	F	0.432838	0.502782	0.733473
38	C	0.45562	0.48567	0.798593
39	C	0.466477	0.464564	0.664893
40	C	0.489931	0.446042	0.721354
41	C	0.502601	0.448506	0.912394
42	C	0.527484	0.428035	0.956845
43	C	0.510345	0.387389	0.006707
44	C	0.544799	0.376745	0.041095
45	C	0.583697	0.417867	0
46	C	0.573122	0.446815	0.951833
47	C	0.491735	0.470187	0.051244
48	C	0.503727	0.473863	0.245942
49	F	0.52642	0.456662	0.31116
50	C	0.492995	0.495094	0.379505
51	C	0.469566	0.51364	0.323017
52	C	0.456683	0.510964	0.132211
53	C	0.432216	0.531848	0.087304
54	C	0.389832	0.513243	0.102643
55	C	0.375194	0.543612	0.046547
56	C	0.416303	0.582133	0
57	C	0.448573	0.574781	0.024404
58	C	0.467577	0.489311	0.993329
59	H	0.456472	0.46284	0.517466
60	H	0.498402	0.429601	0.61604
61	H	0.476983	0.365319	0.022077
62	H	0.544109	0.366757	0.189019
63	H	0.541645	0.35209	0.943101
64	H	0.594558	0.479181	0.915652
65	H	0.503121	0.496937	0.5268
66	H	0.461296	0.530281	0.428111
67	H	0.368892	0.481258	0.146761
68	H	0.358969	0.548976	0.165769
69	H	0.3542	0.532014	0.922377
70	H	0.481671	0.596701	0.00085
71	F	0.497244	0.930643	0.733473
72	C	0.514272	0.970149	0.798593
73	C	0.535399	0.001835	0.664893
74	C	0.553839	0.043404	0.721354
75	C	0.551273	0.05348	0.912394
76	C	0.571661	0.098397	0.956845
77	C	0.612618	0.121814	0.006707
78	C	0.623064	0.166433	0.041095
79	C	0.581474	0.164049	0
80	C	0.552468	0.124857	0.951833
81	C	0.529569	0.021215	0.051244
82	C	0.52579	0.029418	0.245942
83	F	0.542909	0.068924	0.31116
84	C	0.504538	0.997732	0.379505
85	C	0.486073	0.956162	0.323017
86	C	0.488854	0.946086	0.132211
87	C	0.468048	0.90117	0.087304
88	C	0.487042	0.877753	0.102643
89	C	0.456636	0.833134	0.046547
90	C	0.417644	0.835518	0
91	C	0.424799	0.87471	0.024404
92	C	0.510529	0.978352	0.993329
93	H	0.537202	0.993658	0.517466
94	H	0.570295	0.0681	0.61604
95	H	0.635028	0.110753	0.022077
96	H	0.633103	0.175668	0.189019
97	H	0.647856	0.187795	0.943101
98	H	0.519799	0.113908	0.915652
99	H	0.502613	0.005909	0.5268
100	H	0.469415	0.931467	0.428111
101	H	0.519324	0.888814	0.146761
102	H	0.451364	0.811772	0.165769
103	H	0.468438	0.823899	0.922377
104	H	0.402541	0.885659	0.00085
105	F	0.069261	0.565924	0.733473
106	C	0.02945	0.54353	0.798593
107	C	0.997466	0.532951	0.664893
108	C	0.955573	0.509903	0.721354
109	C	0.945468	0.497363	0.912394
110	C	0.900198	0.472917	0.956845
111	C	0.87638	0.490146	0.006707
112	C	0.83148	0.456171	0.041095
113	C	0.834172	0.417433	0
114	C	0.873753	0.427678	0.951833
115	C	0.978038	0.507947	0.051244
116	C	0.969825	0.496069	0.245942
117	F	0.930014	0.473764	0.31116
118	C	0.001809	0.506524	0.379505
119	C	0.043703	0.529547	0.323017
120	C	0.053806	0.542299	0.132211
121	C	0.099079	0.566332	0.087304
122	C	0.122469	0.608354	0.102643
123	C	0.167512	0.622603	0.046547
124	C	0.165395	0.581699	0
125	C	0.12597	0.549859	0.024404
126	C	0.021236	0.531687	0.993329
127	H	0.005669	0.542852	0.517466
128	H	0.930645	0.501648	0.61604
129	H	0.887332	0.523277	0.022077
130	H	0.82213	0.456924	0.189019
131	H	0.809842	0.459464	0.943101
132	H	0.884986	0.406261	0.915652
133	H	0.993608	0.496503	0.5268
134	H	0.068632	0.537602	0.428111
135	H	0.111126	0.629277	0.146761
136	H	0.18901	0.638601	0.165769
137	H	0.176705	0.643436	0.922377
138	H	0.11513	0.51699	0.00085
