data_C42F6H18N12O6_2023-05-10_23:23:36
#******************************************
#
# CIF file created by Zeo++
# Zeo++ is an open source package to
# analyze microporous materials
#
#*******************************************

_cell_length_a		31.1894   
_cell_length_b		31.4881   
_cell_length_c		7   
_cell_angle_alpha		90   
_cell_angle_beta		90   
_cell_angle_gamma		119.586   

_symmetry_space_group_name_H-M		'P1'
_symmetry_Int_Tables_number		1
_symmetry_cell_setting		Monoclinic

loop_
_symmetry_equiv_pos_as_xyz
'+x,+y,+z'

loop_
_atom_site_label
_atom_site_type_symbol
_atom_site_fract_x
_atom_site_fract_y
_atom_site_fract_z
1	C	0.382993	0.677001	0.999995
2	O	0.426536	0.6846	0.999991
3	C	0.343779	0.62622	0.999998
4	C	0.351552	0.58879	0
5	N	0.400292	0.597543	0
6	C	0.293423	0.617206	3e-06
7	O	0.258175	0.573438	5e-06
8	C	0.281188	0.65626	6e-06
9	C	0.234853	0.646836	5e-06
10	N	0.196697	0.597038	0
11	C	0.322299	0.706635	4e-06
12	O	0.312567	0.740407	7e-06
13	C	0.373458	0.717912	0.999999
14	C	0.409694	0.763868	0.999998
15	N	0.402244	0.804663	0
16	H	0.321524	0.552352	1e-06
17	H	0.224979	0.674808	8e-06
18	H	0.446478	0.77043	0.999997
19	C	0.617007	0.322999	0.999995
20	O	0.573464	0.3154	0.999991
21	C	0.656221	0.37378	0.999998
22	C	0.648448	0.41121	0
23	N	0.599708	0.402457	0
24	C	0.706577	0.382794	3e-06
25	O	0.741825	0.426562	5e-06
26	C	0.718812	0.34374	6e-06
27	C	0.765147	0.353164	5e-06
28	N	0.803303	0.402962	0
29	C	0.677701	0.293365	4e-06
30	O	0.687433	0.259593	7e-06
31	C	0.626542	0.282088	0.999999
32	C	0.590306	0.236132	0.999998
33	N	0.597756	0.195337	0
34	H	0.678476	0.447648	1e-06
35	H	0.775021	0.325192	8e-06
36	H	0.553522	0.22957	0.999997
37	F	0.477331	0.522176	0.474342
38	C	0.487758	0.511976	0.300002
39	N	0.513011	0.487273	0.291858
40	C	0.523515	0.477005	0.11417
41	C	0.550981	0.450147	0.125317
42	C	0.569844	0.431673	0
43	C	0.508249	0.491946	0.952037
44	F	0.517792	0.482625	0.775649
45	N	0.482881	0.516759	0.960412
46	C	0.472713	0.526699	0.137616
47	C	0.445372	0.553444	0.151696
48	C	0.430156	0.568327	0
49	H	0.557033	0.444253	0.274533
50	H	0.588822	0.413119	0.055091
51	H	0.437608	0.56104	0.295148
52	H	0.43684	0.561788	0.853645
53	F	0.477377	0.955395	0.474342
54	C	0.487546	0.975796	0.300002
55	N	0.512173	0.025203	0.291858
56	C	0.522409	0.045748	0.11417
57	C	0.549184	0.099475	0.125317
58	C	0.567601	0.136402	0
59	C	0.507515	0.015872	0.952037
60	F	0.516807	0.034529	0.775649
61	N	0.482778	0.966242	0.960412
62	C	0.472869	0.946355	0.137616
63	C	0.446207	0.892863	0.151696
64	C	0.43137	0.863094	0
65	H	0.55506	0.111291	0.274533
66	H	0.586098	0.173523	0.055091
67	H	0.438634	0.87767	0.295148
68	H	0.437888	0.876171	0.853645
69	F	0.044525	0.521672	0.474342
70	C	0.02393	0.511471	0.300002
71	N	0.97405	0.486767	0.291858
72	C	0.95331	0.47649	0.11417
73	C	0.899069	0.449621	0.125317
74	C	0.861789	0.431168	0
75	C	0.98347	0.491425	0.952037
76	F	0.964635	0.482089	0.775649
77	N	0.033574	0.516242	0.960412
78	C	0.053652	0.52619	0.137616
79	C	0.107655	0.552937	0.151696
80	C	0.137708	0.567822	0
81	H	0.887141	0.4437	0.274533
82	H	0.824314	0.412601	0.055091
83	H	0.122992	0.560532	0.295148
84	H	0.124505	0.561283	0.853645
