data_C81F6H45N9O6_2023-05-10_23:41:10
#******************************************
#
# CIF file created by Zeo++
# Zeo++ is an open source package to
# analyze microporous materials
#
#*******************************************

_cell_length_a		36.8028   
_cell_length_b		37.1014   
_cell_length_c		7   
_cell_angle_alpha		90   
_cell_angle_beta		90   
_cell_angle_gamma		119.648   

_symmetry_space_group_name_H-M		'P1'
_symmetry_Int_Tables_number		1
_symmetry_cell_setting		Monoclinic

loop_
_symmetry_equiv_pos_as_xyz
'+x,+y,+z'

loop_
_atom_site_label
_atom_site_type_symbol
_atom_site_fract_x
_atom_site_fract_y
_atom_site_fract_z
1	C	0.37543	0.675443	0.999995
2	O	0.41234	0.681896	0.999991
3	C	0.342142	0.632318	0.999998
4	C	0.348689	0.600531	0
5	N	0.390005	0.607964	0
6	C	0.299458	0.624663	3e-06
7	O	0.269538	0.587494	5e-06
8	C	0.289131	0.657829	6e-06
9	C	0.249853	0.649825	5e-06
10	N	0.217463	0.607536	0
11	C	0.324025	0.700609	4e-06
12	O	0.315814	0.729289	7e-06
13	C	0.367393	0.710186	0.999999
14	C	0.398152	0.749213	0.999998
15	N	0.391883	0.783857	0
16	H	0.323202	0.569587	1e-06
17	H	0.241515	0.673581	8e-06
18	H	0.429332	0.754786	0.999997
19	C	0.62457	0.324557	0.999995
20	O	0.58766	0.318104	0.999991
21	C	0.657858	0.367682	0.999998
22	C	0.651311	0.399469	0
23	N	0.609995	0.392036	0
24	C	0.700542	0.375337	3e-06
25	O	0.730462	0.412506	5e-06
26	C	0.710869	0.342171	6e-06
27	C	0.750147	0.350175	5e-06
28	N	0.782537	0.392464	0
29	C	0.675975	0.299391	4e-06
30	O	0.684186	0.270711	7e-06
31	C	0.632607	0.289814	0.999999
32	C	0.601848	0.250787	0.999998
33	N	0.608117	0.216143	0
34	H	0.676798	0.430413	1e-06
35	H	0.758485	0.326419	8e-06
36	H	0.570668	0.245214	0.999997
37	F	0.508324	0.545497	0.558847
38	C	0.527655	0.546528	0.394752
39	C	0.537014	0.578511	0.266096
40	C	0.556913	0.579744	0.094612
41	C	0.568517	0.613059	0.953761
42	C	0.544105	0.627253	0.881731
43	C	0.499711	0.611566	0.922931
44	C	0.486975	0.638651	0.996358
45	C	0.444802	0.624442	0.035579
46	C	0.415283	0.583154	0
47	C	0.427492	0.555995	0.924938
48	C	0.469669	0.570258	0.885777
49	C	0.567279	0.548695	0.065163
50	F	0.587324	0.549277	0.903829
51	N	0.55852	0.517368	0.18847
52	C	0.538553	0.516345	0.35218
53	C	0.528752	0.48248	0.488997
54	C	0.534304	0.449394	0.473459
55	C	0.551597	0.438241	0.310317
56	C	0.593969	0.449639	0.307652
57	C	0.61057	0.438952	0.152375
58	C	0.584717	0.416846	0
59	C	0.542455	0.405291	0.001357
60	C	0.5259	0.415996	0.156739
61	H	0.528681	0.601963	0.301897
62	H	0.600679	0.62699	0.903187
63	H	0.557627	0.652758	0.779809
64	H	0.509788	0.670931	0.024566
65	H	0.435371	0.645755	0.093394
66	H	0.404558	0.523832	0.895894
67	H	0.47884	0.548907	0.825546
68	H	0.514992	0.485284	0.62205
69	H	0.525187	0.427706	0.592255
70	H	0.614307	0.467212	0.425397
71	H	0.643561	0.448177	0.151399
72	H	0.522256	0.388229	0.882501
73	H	0.493013	0.407256	0.156606
74	F	0.453801	0.962839	0.558847
75	C	0.452628	0.980923	0.394752
76	C	0.420433	0.958417	0.266096
77	C	0.419054	0.976862	0.094612
78	C	0.385504	0.955253	0.953761
79	C	0.371418	0.917029	0.881731
80	C	0.387489	0.888721	0.922931
81	C	0.360371	0.849239	0.996358
82	C	0.374943	0.821662	0.035579
83	C	0.416628	0.833479	0
84	C	0.443825	0.872514	0.924938
85	C	0.429199	0.900043	0.885777
86	C	0.450172	0.017938	0.065163
87	F	0.449445	0.037174	0.903829
88	N	0.481704	0.040386	0.18847
89	C	0.482872	0.021665	0.35218
90	C	0.516961	0.045602	0.488997
91	C	0.550159	0.083943	0.473459
92	C	0.561242	0.112112	0.310317
93	C	0.549492	0.142677	0.307652
94	C	0.560111	0.169699	0.152375
95	C	0.5825	0.166093	0
96	C	0.594406	0.135791	0.001357
97	C	0.58377	0.108798	0.156739
98	H	0.396932	0.926893	0.301897
99	H	0.371282	0.973211	0.903187
100	H	0.345701	0.905069	0.779809
101	H	0.327782	0.839736	0.024566
102	H	0.353599	0.791177	0.093394
103	H	0.476297	0.881781	0.895894
104	H	0.450583	0.930308	0.825546
105	H	0.514241	0.029217	0.62205
106	H	0.572011	0.096466	0.592255
107	H	0.531695	0.145331	0.425397
108	H	0.550611	0.193149	0.151399
109	H	0.61169	0.132767	0.882501
110	H	0.592781	0.084968	0.156606
111	F	0.037226	0.491022	0.558847
112	C	0.019067	0.471907	0.394752
113	C	0.041903	0.462429	0.266096
114	C	0.023384	0.442752	0.094612
115	C	0.045329	0.431046	0.953761
116	C	0.083827	0.455076	0.881731
117	C	0.112151	0.49907	0.922931
118	C	0.152004	0.511467	0.996358
119	C	0.179605	0.553254	0.035579
120	C	0.16744	0.582725	0
121	C	0.128034	0.570848	0.924938
122	C	0.100482	0.529056	0.885777
123	C	0.9819	0.432724	0.065163
124	F	0.962581	0.412906	0.903829
125	N	0.959127	0.441603	0.18847
126	C	0.977925	0.461347	0.35218
127	C	0.953637	0.471274	0.488997
128	C	0.914887	0.46602	0.473459
129	C	0.886511	0.449005	0.310317
130	C	0.855889	0.407041	0.307652
131	C	0.828669	0.390707	0.152375
132	C	0.832133	0.416418	0
133	C	0.862489	0.458275	0.001357
134	C	0.889681	0.474563	0.156739
135	H	0.073737	0.470501	0.301897
136	H	0.027389	0.399156	0.903187
137	H	0.096023	0.44153	0.779809
138	H	0.161781	0.48869	0.024566
139	H	0.21038	0.562426	0.093394
140	H	0.118495	0.593744	0.895894
141	H	0.069928	0.520142	0.825546
142	H	0.970117	0.484856	0.62205
143	H	0.902152	0.475185	0.592255
144	H	0.853348	0.386814	0.425397
145	H	0.805179	0.358032	0.151399
146	H	0.865405	0.478361	0.882501
147	H	0.913556	0.507132	0.156606
