data_C48F6H24N6O6_2023-05-10_23:32:21
#******************************************
#
# CIF file created by Zeo++
# Zeo++ is an open source package to
# analyze microporous materials
#
#*******************************************

_cell_length_a		31.312   
_cell_length_b		31.6107   
_cell_length_c		7   
_cell_angle_alpha		90   
_cell_angle_beta		90   
_cell_angle_gamma		119.587   

_symmetry_space_group_name_H-M		'P1'
_symmetry_Int_Tables_number		1
_symmetry_cell_setting		Monoclinic

loop_
_symmetry_equiv_pos_as_xyz
'+x,+y,+z'

loop_
_atom_site_label
_atom_site_type_symbol
_atom_site_fract_x
_atom_site_fract_y
_atom_site_fract_z
1	C	0.382799	0.676961	0.999995
2	O	0.426172	0.68453	0.999991
3	C	0.343736	0.626376	0.999998
4	C	0.351478	0.589091	0
5	N	0.400028	0.59781	0
6	C	0.293578	0.617397	3e-06
7	O	0.258466	0.573798	5e-06
8	C	0.281392	0.6563	6e-06
9	C	0.235238	0.646912	5e-06
10	N	0.19723	0.597307	0
11	C	0.322343	0.706481	4e-06
12	O	0.31265	0.740122	7e-06
13	C	0.373303	0.717714	0.999999
14	C	0.409398	0.763493	0.999998
15	N	0.401979	0.80413	0
16	H	0.321567	0.552793	1e-06
17	H	0.225403	0.674777	8e-06
18	H	0.446038	0.77003	0.999997
19	C	0.617201	0.323039	0.999995
20	O	0.573828	0.31547	0.999991
21	C	0.656264	0.373624	0.999998
22	C	0.648522	0.410909	0
23	N	0.599972	0.40219	0
24	C	0.706422	0.382603	3e-06
25	O	0.741534	0.426202	5e-06
26	C	0.718608	0.3437	6e-06
27	C	0.764762	0.353088	5e-06
28	N	0.80277	0.402693	0
29	C	0.677657	0.293519	4e-06
30	O	0.68735	0.259878	7e-06
31	C	0.626697	0.282286	0.999999
32	C	0.590602	0.236507	0.999998
33	N	0.598021	0.19587	0
34	H	0.678433	0.447207	1e-06
35	H	0.774597	0.325223	8e-06
36	H	0.553962	0.22997	0.999997
37	F	0.473929	0.525507	0.432426
38	C	0.485597	0.512132	0.267304
39	C	0.519613	0.495754	0.271423
40	C	0.532275	0.480661	0.103005
41	C	0.56905	0.464638	0.114373
42	C	0.570226	0.431293	0
43	C	0.510299	0.483267	0.932078
44	F	0.521635	0.470093	0.765806
45	C	0.476271	0.499668	0.928069
46	C	0.463862	0.514783	0.096479
47	C	0.427632	0.531415	0.098709
48	C	0.429774	0.568707	0
49	H	0.535555	0.494714	0.408049
50	H	0.596371	0.481185	0.226889
51	H	0.543951	0.412774	0.886542
52	H	0.45997	0.500451	0.792036
53	H	0.396961	0.511497	0.195964
54	H	0.400983	0.578129	0.014975
55	F	0.474059	0.948735	0.432426
56	C	0.487409	0.97351	0.267304
57	C	0.503594	0.023308	0.271423
58	C	0.518663	0.050766	0.103005
59	C	0.534468	0.102934	0.114373
60	C	0.567983	0.137163	0
61	C	0.516226	0.026503	0.932078
62	F	0.529376	0.05075	0.765806
63	C	0.500018	0.97667	0.928069
64	C	0.484924	0.94944	0.096479
65	C	0.468502	0.897204	0.098709
66	C	0.430992	0.862335	0
67	H	0.504508	0.040066	0.408049
68	H	0.517606	0.113476	0.226889
69	H	0.586819	0.129609	0.886542
70	H	0.499365	0.959814	0.792036
71	H	0.488782	0.886701	0.195964
72	H	0.421758	0.82459	0.014975
73	F	0.051248	0.525004	0.432426
74	C	0.02623	0.513604	0.267304
75	C	0.976029	0.480184	0.271423
76	C	0.948299	0.467819	0.103005
77	C	0.895719	0.431674	0.114373
78	C	0.861028	0.43079	0
79	C	0.972713	0.489476	0.932078
80	F	0.948226	0.478402	0.765806
81	C	0.022948	0.522907	0.928069
82	C	0.05045	0.535024	0.096479
83	C	0.103103	0.570626	0.098709
84	C	0.13847	0.568204	0
85	H	0.959174	0.464466	0.408049
86	H	0.88526	0.404586	0.226889
87	H	0.868467	0.456863	0.886542
88	H	0.039901	0.538981	0.792036
89	H	0.113495	0.601047	0.195964
90	H	0.176496	0.596528	0.014975
