data_C60F6H18N12O6S9_2023-05-12_10:30:51
#******************************************
#
# CIF file created by Zeo++
# Zeo++ is an open source package to
# analyze microporous materials
#
#*******************************************

_cell_length_a		36.5889   
_cell_length_b		36.8875   
_cell_length_c		7   
_cell_angle_alpha		90   
_cell_angle_beta		90   
_cell_angle_gamma		119.646   

_symmetry_space_group_name_H-M		'P1'
_symmetry_Int_Tables_number		1
_symmetry_cell_setting		Monoclinic

loop_
_symmetry_equiv_pos_as_xyz
'+x,+y,+z'

loop_
_atom_site_label
_atom_site_type_symbol
_atom_site_fract_x
_atom_site_fract_y
_atom_site_fract_z
1	C	0.375676	0.675493	0.999995
2	O	0.412801	0.681984	0.999991
3	C	0.342195	0.632119	0.999998
4	C	0.348782	0.600149	0
5	N	0.390339	0.607625	0
6	C	0.299261	0.624421	3e-06
7	O	0.269168	0.587037	5e-06
8	C	0.288873	0.657778	6e-06
9	C	0.249365	0.649728	5e-06
10	N	0.216788	0.607194	0
11	C	0.323969	0.700805	4e-06
12	O	0.315709	0.729651	7e-06
13	C	0.367591	0.710437	0.999999
14	C	0.398527	0.74969	0.999998
15	N	0.39222	0.784535	0
16	H	0.323147	0.569026	1e-06
17	H	0.240978	0.673621	8e-06
18	H	0.42989	0.755295	0.999997
19	C	0.624324	0.324507	0.999995
20	O	0.587199	0.318016	0.999991
21	C	0.657805	0.367881	0.999998
22	C	0.651218	0.399851	0
23	N	0.609661	0.392375	0
24	C	0.700739	0.375579	3e-06
25	O	0.730832	0.412963	5e-06
26	C	0.711127	0.342222	6e-06
27	C	0.750635	0.350272	5e-06
28	N	0.783212	0.392806	0
29	C	0.676031	0.299195	4e-06
30	O	0.684291	0.270349	7e-06
31	C	0.632409	0.289563	0.999999
32	C	0.601473	0.25031	0.999998
33	N	0.60778	0.215465	0
34	H	0.676853	0.430974	1e-06
35	H	0.759022	0.326379	8e-06
36	H	0.57011	0.244705	0.999997
37	F	0.510338	0.551951	0.655244
38	C	0.513235	0.535314	0.821533
39	C	0.493923	0.540588	0.984594
40	C	0.470976	0.563509	0.981161
41	C	0.485076	0.60438	0.926485
42	C	0.453009	0.61564	0.938904
43	C	0.415765	0.582671	0
44	S	0.418589	0.538913	0.041172
45	C	0.499187	0.5231	0.156773
46	N	0.485279	0.525314	0.331768
47	S	0.5	0.5	0.479988
48	N	0.525714	0.485629	0.331767
49	C	0.523376	0.499361	0.156773
50	C	0.541105	0.494282	0.984593
51	C	0.564457	0.471764	0.981161
52	C	0.605705	0.48599	0.926484
53	C	0.617324	0.454375	0.938904
54	C	0.584235	0.417329	0
55	S	0.539946	0.419809	0.041172
56	C	0.535633	0.513332	0.821533
57	F	0.552485	0.510587	0.655244
58	H	0.516981	0.625438	0.880031
59	H	0.457375	0.646136	0.904039
60	H	0.626782	0.517675	0.880031
61	H	0.648146	0.458907	0.904038
62	F	0.447298	0.95842	0.655244
63	C	0.463991	0.977802	0.821533
64	C	0.45883	0.953479	0.984594
65	C	0.435966	0.90804	0.981161
66	C	0.394808	0.881396	0.926485
67	C	0.383724	0.83852	0.938904
68	C	0.417108	0.834443	0
69	S	0.461047	0.880681	0.041172
70	C	0.476361	0.976045	0.156773
71	N	0.474236	0.9601	0.331768
72	S	0.499562	0.999785	0.479988
73	N	0.513816	0.03947	0.331767
74	C	0.500038	0.023524	0.156773
75	C	0.505014	0.046091	0.984593
76	C	0.52747	0.09153	0.981161
77	C	0.512885	0.118174	0.926484
78	C	0.544564	0.16105	0.938904
79	C	0.582015	0.165127	0
80	S	0.579838	0.118889	0.041172
81	C	0.485915	0.021767	0.821533
82	F	0.488554	0.04115	0.655244
83	H	0.373426	0.892022	0.880031
84	H	0.353055	0.812556	0.904039
85	H	0.480905	0.107548	0.880031
86	H	0.539791	0.187014	0.904038
87	F	0.041711	0.488982	0.655244
88	C	0.022121	0.486237	0.821533
89	C	0.046593	0.505287	0.984594
90	C	0.092404	0.527805	0.981161
91	C	0.119463	0.513578	0.926485
92	C	0.162614	0.545194	0.938904
93	C	0.166473	0.58224	0
94	S	0.119711	0.57976	0.041172
95	C	0.023799	0.500208	0.156773
96	N	0.039833	0.51394	0.331768
97	S	0.999785	0.499569	0.479988
98	N	0.959816	0.474255	0.331767
99	C	0.975933	0.476468	0.156773
100	C	0.953227	0.458981	0.984593
101	C	0.90742	0.43606	0.981161
102	C	0.880757	0.395189	0.926484
103	C	0.837459	0.383929	0.938904
104	C	0.833097	0.416898	0
105	S	0.879563	0.460655	0.041172
106	C	0.977799	0.464254	0.821533
107	F	0.958308	0.447617	0.655244
108	H	0.108939	0.481894	0.880031
109	H	0.188916	0.540661	0.904039
110	H	0.891659	0.374131	0.880031
111	H	0.811409	0.353432	0.904038
