data_C42F6H9N9O6_2023-05-11_00:59:33
#******************************************
#
# CIF file created by Zeo++
# Zeo++ is an open source package to
# analyze microporous materials
#
#*******************************************

_cell_length_a		30.8776   
_cell_length_b		31.1763   
_cell_length_c		7   
_cell_angle_alpha		90   
_cell_angle_beta		90   
_cell_angle_gamma		119.582   

_symmetry_space_group_name_H-M		'P1'
_symmetry_Int_Tables_number		1
_symmetry_cell_setting		Monoclinic

loop_
_symmetry_equiv_pos_as_xyz
'+x,+y,+z'

loop_
_atom_site_label
_atom_site_type_symbol
_atom_site_fract_x
_atom_site_fract_y
_atom_site_fract_z
1	C	0.383493	0.677104	0.999995
2	O	0.427476	0.684778	0.999991
3	C	0.343888	0.625817	0.999998
4	C	0.351742	0.588014	0
5	N	0.400975	0.596854	0
6	C	0.293024	0.616714	3e-06
7	O	0.257423	0.57251	5e-06
8	C	0.280663	0.656156	6e-06
9	C	0.23386	0.646638	5e-06
10	N	0.195323	0.596344	0
11	C	0.322184	0.707033	4e-06
12	O	0.312351	0.741142	7e-06
13	C	0.373859	0.718422	0.999999
14	C	0.410457	0.764836	0.999998
15	N	0.402929	0.806037	0
16	H	0.321414	0.551213	1e-06
17	H	0.223884	0.674889	8e-06
18	H	0.447612	0.771464	0.999997
19	C	0.616507	0.322896	0.999995
20	O	0.572524	0.315222	0.999991
21	C	0.656112	0.374183	0.999998
22	C	0.648258	0.411986	0
23	N	0.599025	0.403146	0
24	C	0.706976	0.383286	3e-06
25	O	0.742577	0.42749	5e-06
26	C	0.719337	0.343844	6e-06
27	C	0.76614	0.353362	5e-06
28	N	0.804677	0.403656	0
29	C	0.677816	0.292967	4e-06
30	O	0.687649	0.258858	7e-06
31	C	0.626141	0.281578	0.999999
32	C	0.589543	0.235164	0.999998
33	N	0.597071	0.193963	0
34	H	0.678586	0.448787	1e-06
35	H	0.776116	0.325111	8e-06
36	H	0.552388	0.228536	0.999997
37	F	0.473077	0.526332	0.449094
38	C	0.487271	0.51245	0.290705
39	C	0.478584	0.520947	0.105802
40	C	0.45285	0.546116	0.048515
41	C	0.431143	0.567348	0
42	C	0.500212	0.499793	0.989122
43	F	0.500255	0.499751	0.797976
44	C	0.521368	0.479101	0.102794
45	C	0.547098	0.453935	0.047186
46	C	0.568857	0.432652	0
47	N	0.513071	0.487216	0.288741
48	H	0.524133	0.476396	0.406316
49	F	0.47323	0.947081	0.449094
50	C	0.487069	0.974847	0.290705
51	C	0.478599	0.957852	0.105802
52	C	0.453508	0.907514	0.048515
53	C	0.432343	0.865051	0
54	C	0.499687	0.00016	0.989122
55	F	0.499728	0.000244	0.797976
56	C	0.520314	0.041544	0.102794
57	C	0.545402	0.091876	0.047186
58	C	0.566617	0.134441	0
59	N	0.512224	0.025314	0.288741
60	H	0.52301	0.046953	0.406316
61	F	0.052919	0.525822	0.449094
62	C	0.024885	0.51194	0.290705
63	C	0.042044	0.520437	0.105802
64	C	0.092868	0.545606	0.048515
65	C	0.135741	0.566838	0
66	C	0.999328	0.499283	0.989122
67	F	0.999243	0.499241	0.797976
68	C	0.957544	0.478591	0.102794
69	C	0.906727	0.453425	0.047186
70	C	0.863752	0.432142	0
71	N	0.973931	0.486706	0.288741
72	H	0.952084	0.475887	0.406316
