data_C78H42N12O6S15_2023-05-12_09:13:11
#******************************************
#
# CIF file created by Zeo++
# Zeo++ is an open source package to
# analyze microporous materials
#
#*******************************************

_cell_length_a		46.6063   
_cell_length_b		46.9048   
_cell_length_c		7   
_cell_angle_alpha		90   
_cell_angle_beta		90   
_cell_angle_gamma		119.722   

_symmetry_space_group_name_H-M		'P1'
_symmetry_Int_Tables_number		1
_symmetry_cell_setting		Monoclinic

loop_
_symmetry_equiv_pos_as_xyz
'+x,+y,+z'

loop_
_atom_site_label
_atom_site_type_symbol
_atom_site_fract_x
_atom_site_fract_y
_atom_site_fract_z
1	C	0.366585	0.673613	0.999995
2	O	0.395739	0.678722	0.999991
3	C	0.340249	0.639477	0.999998
4	C	0.345382	0.614315	0
5	N	0.378016	0.620199	0
6	C	0.306534	0.633418	3e-06
7	O	0.282864	0.603996	5e-06
8	C	0.298418	0.659671	6e-06
9	C	0.267393	0.653336	5e-06
10	N	0.241766	0.61986	0
11	C	0.326023	0.693534	4e-06
12	O	0.319573	0.716237	7e-06
13	C	0.36028	0.701115	0.999999
14	C	0.384615	0.732008	0.999998
15	N	0.379705	0.759432	0
16	H	0.325219	0.589821	1e-06
17	H	0.260837	0.67214	8e-06
18	H	0.409243	0.73642	0.999997
19	C	0.633415	0.326387	0.999995
20	O	0.604261	0.321278	0.999991
21	C	0.659751	0.360523	0.999998
22	C	0.654618	0.385685	0
23	N	0.621984	0.379801	0
24	C	0.693466	0.366582	3e-06
25	O	0.717136	0.396004	5e-06
26	C	0.701582	0.340329	6e-06
27	C	0.732607	0.346664	5e-06
28	N	0.758234	0.38014	0
29	C	0.673977	0.306466	4e-06
30	O	0.680427	0.283763	7e-06
31	C	0.63972	0.298885	0.999999
32	C	0.615385	0.267992	0.999998
33	N	0.620295	0.240568	0
34	H	0.674781	0.410179	1e-06
35	H	0.739163	0.32786	8e-06
36	H	0.590757	0.26358	0.999997
37	N	0.532681	0.482097	0.582047
38	C	0.524692	0.500366	0.46728
39	C	0.526282	0.503424	0.269722
40	C	0.537764	0.483331	0.133525
41	C	0.533988	0.480865	0.937786
42	C	0.546657	0.461608	0.853611
43	C	0.559596	0.449261	0.986527
44	C	0.574455	0.428877	0.953486
45	C	0.59081	0.419657	0.083541
46	C	0.602053	0.39944	0
47	C	0.594448	0.393374	0.810018
48	S	0.573469	0.412394	0.731534
49	S	0.555426	0.461043	0.212222
50	C	0.516246	0.526517	0.207283
51	N	0.518752	0.537434	0.024282
52	C	0.504907	0.537868	0.355863
53	C	0.49187	0.560146	0.350026
54	C	0.499739	0.586464	0.469247
55	C	0.481961	0.60308	0.423552
56	C	0.46062	0.589121	0.27085
57	C	0.438847	0.599401	0.18557
58	C	0.414205	0.582916	0.051013
59	C	0.397947	0.60056	0
60	C	0.409944	0.62991	0.093757
61	S	0.441264	0.636217	0.245528
62	S	0.462752	0.555839	0.185841
63	S	0.50909	0.522829	0.57027
64	H	0.523216	0.477124	0.716402
65	H	0.534915	0.463479	0.523116
66	H	0.521921	0.49136	0.855033
67	H	0.545868	0.45707	0.701424
68	H	0.594602	0.427161	0.231992
69	H	0.60007	0.378855	0.71318
70	H	0.538388	0.540377	0.945657
71	H	0.514582	0.556497	0.999865
72	H	0.517576	0.593761	0.584294
73	H	0.484906	0.624317	0.501583
74	H	0.408064	0.559191	0.99225
75	H	0.402029	0.64795	0.081512
76	N	0.517441	0.050016	0.582047
77	C	0.499151	0.023933	0.46728
78	C	0.496073	0.022468	0.269722
79	C	0.516174	0.053826	0.133525
80	C	0.51867	0.052536	0.937786
81	C	0.537926	0.08424	0.853611
82	C	0.550246	0.109339	0.986527
83	C	0.57062	0.144332	0.953486
84	C	0.579782	0.169706	0.083541
85	C	0.600008	0.20095	0
86	C	0.606139	0.199446	0.810018
87	S	0.587167	0.159745	0.731534
88	S	0.538444	0.09349	0.212222
89	C	0.472953	0.989559	0.207283
90	N	0.461982	0.981186	0.024282
91	C	0.461624	0.967036	0.355863
92	C	0.439338	0.931965	0.350026
93	C	0.412882	0.91359	0.469247
94	C	0.396305	0.879452	0.423552
95	C	0.410434	0.872187	0.27085
96	C	0.400239	0.840391	0.18557
97	C	0.416921	0.832366	0.051013
98	C	0.399304	0.798711	0
99	C	0.369781	0.781412	0.093757
100	S	0.363276	0.806175	0.245528
101	S	0.443824	0.907395	0.185841
102	S	0.476694	0.986136	0.57027
103	H	0.522485	0.045583	0.716402
104	H	0.536114	0.070744	0.523116
105	H	0.508205	0.030144	0.855033
106	H	0.542484	0.08797	0.701424
107	H	0.572229	0.166001	0.231992
108	H	0.620679	0.219456	0.71318
109	H	0.458919	0.997717	0.945657
110	H	0.442874	0.958098	0.999865
111	H	0.405459	0.924009	0.584294
112	H	0.374975	0.861252	0.501583
113	H	0.440765	0.849874	0.99225
114	H	0.35172	0.75563	0.081512
115	N	0.949365	0.467378	0.582047
116	C	0.975644	0.475192	0.46728
117	C	0.977132	0.473599	0.269722
118	C	0.945549	0.462334	0.133525
119	C	0.946829	0.46609	0.937786
120	C	0.914904	0.453643	0.853611
121	C	0.889645	0.440892	0.986527
122	C	0.854412	0.426283	0.953486
123	C	0.828895	0.410128	0.083541
124	C	0.797425	0.399101	0
125	C	0.7989	0.406671	0.810018
126	S	0.83885	0.427351	0.731534
127	S	0.905617	0.444958	0.212222
128	C	0.010289	0.483415	0.207283
129	N	0.018753	0.480871	0.024282
130	C	0.032956	0.494587	0.355863
131	C	0.068278	0.50738	0.350026
132	C	0.086867	0.499437	0.469247
133	C	0.12122	0.516959	0.423552
134	C	0.128433	0.538184	0.27085
135	C	0.160401	0.5597	0.18557
136	C	0.168361	0.584209	0.051013
137	C	0.202236	0.60022	0
138	C	0.219762	0.588169	0.093757
139	S	0.194947	0.557099	0.245528
140	S	0.092911	0.536256	0.185841
141	S	0.013703	0.490526	0.57027
142	H	0.953786	0.476785	0.716402
143	H	0.928458	0.465269	0.523116
144	H	0.96936	0.477988	0.855033
145	H	0.911135	0.454451	0.701424
146	H	0.832656	0.406329	0.231992
147	H	0.778737	0.40118	0.71318
148	H	0.00218	0.461398	0.945657
149	H	0.042031	0.484896	0.999865
150	H	0.076452	0.481721	0.584294
151	H	0.139606	0.513922	0.501583
152	H	0.150657	0.590426	0.99225
153	H	0.245738	0.595911	0.081512
