data_C90H48N6O12S6_2023-05-11_03:12:12
#******************************************
#
# CIF file created by Zeo++
# Zeo++ is an open source package to
# analyze microporous materials
#
#*******************************************

_cell_length_a		44.3129   
_cell_length_b		44.6114   
_cell_length_c		7   
_cell_angle_alpha		90   
_cell_angle_beta		90   
_cell_angle_gamma		119.708   

_symmetry_space_group_name_H-M		'P1'
_symmetry_Int_Tables_number		1
_symmetry_cell_setting		Monoclinic

loop_
_symmetry_equiv_pos_as_xyz
'+x,+y,+z'

loop_
_atom_site_label
_atom_site_type_symbol
_atom_site_fract_x
_atom_site_fract_y
_atom_site_fract_z
1	C	0.368304	0.673969	0.999995
2	O	0.398965	0.67934	0.999991
3	C	0.340615	0.638083	0.999998
4	C	0.346021	0.611632	0
5	N	0.380342	0.617818	0
6	C	0.305157	0.631714	3e-06
7	O	0.280271	0.600783	5e-06
8	C	0.296614	0.659312	6e-06
9	C	0.263984	0.652652	5e-06
10	N	0.237042	0.617461	0
11	C	0.325637	0.694912	4e-06
12	O	0.318846	0.718778	7e-06
13	C	0.361664	0.702881	0.999999
14	C	0.387249	0.735358	0.999998
15	N	0.382077	0.764187	0
16	H	0.324823	0.585882	1e-06
17	H	0.257083	0.67242	8e-06
18	H	0.41315	0.739995	0.999997
19	C	0.631696	0.326031	0.999995
20	O	0.601035	0.32066	0.999991
21	C	0.659385	0.361917	0.999998
22	C	0.653979	0.388368	0
23	N	0.619658	0.382182	0
24	C	0.694843	0.368286	3e-06
25	O	0.719729	0.399217	5e-06
26	C	0.703386	0.340688	6e-06
27	C	0.736016	0.347348	5e-06
28	N	0.762958	0.382539	0
29	C	0.674363	0.305088	4e-06
30	O	0.681154	0.281222	7e-06
31	C	0.638336	0.297119	0.999999
32	C	0.612751	0.264642	0.999998
33	N	0.617923	0.235813	0
34	H	0.675177	0.414118	1e-06
35	H	0.742917	0.32758	8e-06
36	H	0.58685	0.260005	0.999997
37	O	0.49098	0.508881	0.042929
38	C	0.500772	0.510691	0.877876
39	C	0.489731	0.52653	0.728794
40	C	0.496084	0.524143	0.543414
41	C	0.484397	0.539894	0.400141
42	C	0.497554	0.55039	0.224154
43	C	0.478538	0.564137	0.125345
44	C	0.453153	0.562638	0.237468
45	C	0.430138	0.57446	0.175636
46	C	0.428314	0.588883	0.003273
47	C	0.401311	0.597171	0
48	C	0.382768	0.589261	0.166666
49	S	0.398177	0.57159	0.329184
50	C	0.454637	0.54703	0.427517
51	C	0.512216	0.503551	0.490534
52	C	0.52607	0.490044	0.610771
53	C	0.541771	0.470027	0.543427
54	C	0.553744	0.452734	0.646818
55	C	0.56738	0.436457	0.523124
56	C	0.564214	0.443107	0.339072
57	C	0.575649	0.430234	0.185027
58	C	0.591414	0.410001	0.186188
59	C	0.598689	0.402829	0
60	C	0.588701	0.417285	0.858658
61	S	0.5703	0.439818	0.9521
62	C	0.547215	0.465391	0.334224
63	C	0.524931	0.497248	0.819162
64	O	0.542494	0.493358	0.941061
65	H	0.476689	0.539944	0.781855
66	H	0.519178	0.549292	0.160335
67	H	0.484803	0.573902	0.981096
68	H	0.445702	0.593278	0.884608
69	H	0.361035	0.592892	0.201817
70	H	0.430314	0.523081	0.455451
71	H	0.459993	0.565518	0.54333
72	H	0.512164	0.498976	0.337802
73	H	0.553858	0.450582	0.800641
74	H	0.578383	0.421366	0.578477
75	H	0.597445	0.400782	0.315806
76	H	0.591214	0.415839	0.705786
77	H	0.564378	0.490301	0.266442
78	H	0.52239	0.452127	0.257877
79	O	0.490776	0.982059	0.042929
80	C	0.488902	0.989958	0.877876
81	C	0.473068	0.963277	0.728794
82	C	0.475427	0.971943	0.543414
83	C	0.459684	0.944709	0.400141
84	C	0.449071	0.947306	0.224154
85	C	0.435384	0.914805	0.125345
86	C	0.437038	0.891154	0.237468
87	C	0.425306	0.856608	0.175636
88	C	0.410839	0.840463	0.003273
89	C	0.402678	0.805479	0
90	C	0.410728	0.794979	0.166666
91	S	0.428375	0.827807	0.329184
92	C	0.452696	0.90814	0.427517
93	C	0.496002	0.00839	0.490534
94	C	0.509479	0.03554	0.610771
95	C	0.52948	0.070989	0.543427
96	C	0.546768	0.100038	0.646818
97	C	0.563027	0.129725	0.523124
98	C	0.55637	0.119979	0.339072
99	C	0.569225	0.144102	0.185027
100	C	0.589441	0.179829	0.186188
101	C	0.596599	0.194165	0
102	C	0.582146	0.169902	0.858658
103	S	0.559635	0.129276	0.9521
104	C	0.534101	0.08099	0.334224
105	C	0.502255	0.02725	0.819162
106	O	0.506056	0.048511	0.941061
107	H	0.459679	0.937025	0.781855
108	H	0.450047	0.969814	0.160335
109	H	0.425545	0.911303	0.981096
110	H	0.406326	0.853315	0.884608
111	H	0.40721	0.769844	0.201817
112	H	0.476879	0.907859	0.455451
113	H	0.434107	0.895066	0.54333
114	H	0.500594	0.012886	0.337802
115	H	0.548928	0.102291	0.800641
116	H	0.57811	0.155625	0.578477
117	H	0.59866	0.194967	0.315806
118	H	0.583583	0.173827	0.705786
119	H	0.508996	0.073224	0.266442
120	H	0.547561	0.069588	0.257877
121	O	0.017704	0.508525	0.042929
122	C	0.009787	0.498816	0.877876
123	C	0.036661	0.509658	0.728794
124	C	0.027949	0.503379	0.543414
125	C	0.055379	0.514862	0.400141
126	C	0.052835	0.501769	0.224154
127	C	0.085538	0.520522	0.125345
128	C	0.10927	0.545673	0.237468
129	C	0.144016	0.568398	0.175636
130	C	0.160307	0.570119	0.003273
131	C	0.195471	0.596815	0
132	C	0.205965	0.615226	0.166666
133	S	0.172908	0.600068	0.329184
134	C	0.092127	0.544294	0.427517
135	C	0.991242	0.487524	0.490534
136	C	0.963911	0.473882	0.610771
137	C	0.92821	0.458449	0.543427
138	C	0.898948	0.446692	0.646818
139	C	0.869054	0.433283	0.523124
140	C	0.878876	0.436379	0.339072
141	C	0.854586	0.425129	0.185027
142	C	0.818605	0.409635	0.186188
143	C	0.804173	0.402472	0
144	C	0.828613	0.412279	0.858658
145	S	0.869525	0.430371	0.9521
146	C	0.918144	0.453084	0.334224
147	C	0.972275	0.474967	0.819162
148	O	0.95091	0.457596	0.941061
149	H	0.063092	0.522496	0.781855
150	H	0.030235	0.480359	0.160335
151	H	0.089112	0.51426	0.981096
152	H	0.147432	0.552872	0.884608
153	H	0.231216	0.636729	0.201817
154	H	0.092267	0.568525	0.455451
155	H	0.10536	0.538881	0.54333
156	H	0.986703	0.487602	0.337802
157	H	0.896675	0.446592	0.800641
158	H	0.842967	0.422474	0.578477
159	H	0.803355	0.403716	0.315806
160	H	0.824663	0.409799	0.705786
161	H	0.926086	0.43594	0.266442
162	H	0.92951	0.47775	0.257877
