data_C66H30N12O12_2023-05-13_15:46:41
#******************************************
#
# CIF file created by Zeo++
# Zeo++ is an open source package to
# analyze microporous materials
#
#*******************************************

_cell_length_a		35.0285   
_cell_length_b		35.3272   
_cell_length_c		7   
_cell_angle_alpha		90   
_cell_angle_beta		90   
_cell_angle_gamma		119.631   

_symmetry_space_group_name_H-M		'P1'
_symmetry_Int_Tables_number		1
_symmetry_cell_setting		Monoclinic

loop_
_symmetry_equiv_pos_as_xyz
'+x,+y,+z'

loop_
_atom_site_label
_atom_site_type_symbol
_atom_site_fract_x
_atom_site_fract_y
_atom_site_fract_z
1	C	0.377559	0.675882	0.999995
2	O	0.416336	0.682658	0.999991
3	C	0.342601	0.630599	0.999998
4	C	0.349492	0.597222	0
5	N	0.392898	0.605027	0
6	C	0.297757	0.622562	3e-06
7	O	0.266336	0.583532	5e-06
8	C	0.286895	0.657387	6e-06
9	C	0.245631	0.648983	5e-06
10	N	0.211616	0.604577	0
11	C	0.323541	0.702307	4e-06
12	O	0.314903	0.732423	7e-06
13	C	0.369102	0.712363	0.999999
14	C	0.401404	0.753344	0.999998
15	N	0.394804	0.789721	0
16	H	0.322726	0.564729	1e-06
17	H	0.236861	0.673927	8e-06
18	H	0.434162	0.759195	0.999997
19	C	0.622441	0.324118	0.999995
20	O	0.583664	0.317342	0.999991
21	C	0.657399	0.369401	0.999998
22	C	0.650508	0.402778	0
23	N	0.607102	0.394973	0
24	C	0.702243	0.377438	3e-06
25	O	0.733664	0.416468	5e-06
26	C	0.713105	0.342613	6e-06
27	C	0.754369	0.351017	5e-06
28	N	0.788384	0.395423	0
29	C	0.676459	0.297693	4e-06
30	O	0.685097	0.267577	7e-06
31	C	0.630898	0.287637	0.999999
32	C	0.598596	0.246656	0.999998
33	N	0.605196	0.210279	0
34	H	0.677274	0.435271	1e-06
35	H	0.763139	0.326073	8e-06
36	H	0.565838	0.240805	0.999997
37	O	0.503422	0.496644	0.800738
38	C	0.502199	0.498101	0.626498
39	C	0.522802	0.478552	0.508133
40	C	0.522179	0.480796	0.316979
41	C	0.543494	0.460474	0.209025
42	C	0.518923	0.42295	0.1011
43	N	0.536383	0.402975	0.996966
44	C	0.580535	0.421025	0
45	C	0.60797	0.458357	0.102564
46	C	0.589094	0.47836	0.208253
47	C	0.501264	0.502295	0.221516
48	C	0.481237	0.521367	0.311512
49	C	0.460633	0.542132	0.201184
50	C	0.418139	0.533787	0.240672
51	N	0.397066	0.551116	0.142672
52	C	0.419465	0.578975	0
53	C	0.46204	0.590051	0.950313
54	C	0.482764	0.571344	0.052328
55	C	0.479639	0.519928	0.524975
56	O	0.461126	0.535512	0.61752
57	H	0.53785	0.462762	0.585987
58	H	0.483287	0.407205	0.094927
59	H	0.643329	0.471891	0.100998
60	H	0.610176	0.507778	0.288598
61	H	0.502334	0.502118	0.065825
62	H	0.398744	0.511987	0.35559
63	H	0.479069	0.612779	0.83515
64	H	0.516299	0.580207	0.014998
65	O	0.502889	0.006487	0.800738
66	C	0.501434	0.003833	0.626498
67	C	0.520924	0.04359	0.508133
68	C	0.518674	0.040748	0.316979
69	C	0.538936	0.081976	0.209025
70	C	0.576822	0.094948	0.1011
71	N	0.596764	0.132023	0.996966
72	C	0.578299	0.157725	0
73	C	0.540585	0.147773	0.102564
74	C	0.520626	0.10927	0.208253
75	C	0.497227	0.998746	0.221516
76	C	0.478211	0.960031	0.311512
77	C	0.457499	0.919066	0.201184
78	C	0.466199	0.885369	0.240672
79	N	0.448943	0.84735	0.142672
80	C	0.420785	0.841826	0
81	C	0.409339	0.872891	0.950313
82	C	0.427982	0.911932	0.052328
83	C	0.479669	0.959881	0.524975
84	O	0.464147	0.926123	0.61752
85	H	0.536679	0.074129	0.585987
86	H	0.592908	0.075373	0.094927
87	H	0.526724	0.169269	0.100998
88	H	0.49091	0.100897	0.288598
89	H	0.497396	0.999978	0.065825
90	H	0.488248	0.887847	0.35559
91	H	0.386376	0.867154	0.83515
92	H	0.418829	0.936265	0.014998
93	O	0.993007	0.496194	0.800738
94	C	0.995685	0.497391	0.626498
95	C	0.955592	0.477182	0.508133
96	C	0.958464	0.477782	0.316979
97	C	0.916888	0.456875	0.209025
98	C	0.903573	0.481427	0.1011
99	N	0.866171	0.464327	0.996966
100	C	0.840483	0.420575	0
101	C	0.850762	0.393195	0.102564
102	C	0.889598	0.411695	0.208253
103	C	0.000827	0.498284	0.221516
104	C	0.039869	0.517927	0.311512
105	C	0.081185	0.538128	0.201184
106	C	0.11498	0.580169	0.240672
107	N	0.153309	0.600859	0.142672
108	C	0.159068	0.578524	0
109	C	0.127938	0.536383	0.950313
110	C	0.088572	0.516048	0.052328
111	C	0.04001	0.519517	0.524975
112	O	0.074045	0.53769	0.61752
113	H	0.924789	0.462435	0.585987
114	H	0.923123	0.516748	0.094927
115	H	0.829265	0.358165	0.100998
116	H	0.898232	0.39065	0.288598
117	H	0.999588	0.497229	0.065825
118	H	0.112325	0.599491	0.35559
119	H	0.133873	0.519391	0.83515
120	H	0.064189	0.482853	0.014998
