data_C78H30N12O12S12_2023-05-10_21:00:00
#******************************************
#
# CIF file created by Zeo++
# Zeo++ is an open source package to
# analyze microporous materials
#
#*******************************************

_cell_length_a		34.9861   
_cell_length_b		35.2847   
_cell_length_c		7   
_cell_angle_alpha		90   
_cell_angle_beta		90   
_cell_angle_gamma		119.63   

_symmetry_space_group_name_H-M		'P1'
_symmetry_Int_Tables_number		1
_symmetry_cell_setting		Monoclinic

loop_
_symmetry_equiv_pos_as_xyz
'+x,+y,+z'

loop_
_atom_site_label
_atom_site_type_symbol
_atom_site_fract_x
_atom_site_fract_y
_atom_site_fract_z
1	C	0.377612	0.675893	0.999995
2	O	0.416436	0.682677	0.999991
3	C	0.342613	0.630556	0.999998
4	C	0.349512	0.597138	0
5	N	0.392971	0.604953	0
6	C	0.297715	0.622509	3e-06
7	O	0.266256	0.583433	5e-06
8	C	0.286839	0.657375	6e-06
9	C	0.245524	0.648961	5e-06
10	N	0.211469	0.604502	0
11	C	0.323529	0.70235	4e-06
12	O	0.31488	0.732502	7e-06
13	C	0.369145	0.712418	0.999999
14	C	0.401486	0.753448	0.999998
15	N	0.394878	0.789869	0
16	H	0.322714	0.564607	1e-06
17	H	0.236744	0.673936	8e-06
18	H	0.434283	0.759306	0.999997
19	C	0.622388	0.324107	0.999995
20	O	0.583564	0.317323	0.999991
21	C	0.657387	0.369444	0.999998
22	C	0.650488	0.402862	0
23	N	0.607029	0.395047	0
24	C	0.702285	0.377491	3e-06
25	O	0.733744	0.416567	5e-06
26	C	0.713161	0.342625	6e-06
27	C	0.754476	0.351039	5e-06
28	N	0.788531	0.395498	0
29	C	0.676471	0.29765	4e-06
30	O	0.68512	0.267498	7e-06
31	C	0.630855	0.287582	0.999999
32	C	0.598514	0.246552	0.999998
33	N	0.605122	0.210131	0
34	H	0.677286	0.435393	1e-06
35	H	0.763256	0.326064	8e-06
36	H	0.565717	0.240694	0.999997
37	O	0.502815	0.49724	0.245729
38	C	0.502698	0.499234	0.071308
39	C	0.498423	0.462403	0.955411
40	C	0.497329	0.463672	0.763958
41	C	0.494783	0.427806	0.65533
42	N	0.517386	0.432263	0.497833
43	C	0.507517	0.392114	0.423093
44	C	0.530611	0.391213	0.248956
45	C	0.524452	0.354386	0.152907
46	S	0.557925	0.367034	0.956338
47	C	0.58043	0.421131	0
48	C	0.563316	0.430238	0.158466
49	C	0.476451	0.356675	0.523622
50	S	0.458898	0.373916	0.716135
51	C	0.501001	0.502062	0.668837
52	C	0.506191	0.538116	0.757335
53	C	0.50881	0.572966	0.644221
54	N	0.485337	0.568142	0.488714
55	C	0.496939	0.607943	0.405616
56	C	0.473763	0.608389	0.231447
57	C	0.485312	0.643841	0.113704
58	S	0.44989	0.631186	0.924754
59	C	0.41957	0.578869	0
60	C	0.435261	0.570393	0.164477
61	C	0.529962	0.643496	0.497846
62	S	0.547029	0.626758	0.693372
63	C	0.506972	0.539291	0.969097
64	O	0.510276	0.570012	0.062512
65	H	0.496994	0.435567	0.036677
66	H	0.50217	0.32055	0.186561
67	H	0.573492	0.462949	0.208406
68	H	0.463391	0.322373	0.495142
69	H	0.499195	0.500225	0.513277
70	H	0.51273	0.676663	0.127075
71	H	0.420233	0.538869	0.23438
72	H	0.544685	0.67762	0.462062
73	O	0.502294	0.005295	0.245729
74	C	0.500292	0.003201	0.071308
75	C	0.537331	0.035535	0.955411
76	C	0.536064	0.033195	0.763958
77	C	0.572122	0.066279	0.65533
78	N	0.567475	0.084184	0.497833
79	C	0.607891	0.114287	0.423093
80	C	0.608625	0.137994	0.248956
81	C	0.645675	0.168464	0.152907
82	S	0.632718	0.188976	0.956338
83	C	0.578194	0.157514	0
84	C	0.569169	0.131568	0.158466
85	C	0.643731	0.118773	0.523622
86	S	0.626538	0.084319	0.716135
87	C	0.497462	0.998718	0.668837
88	C	0.461196	0.968058	0.757335
89	C	0.426158	0.936054	0.644221
90	N	0.431181	0.917654	0.488714
91	C	0.391101	0.889609	0.405616
92	C	0.390825	0.866272	0.231447
93	C	0.355117	0.842492	0.113704
94	S	0.368096	0.82006	0.924754
95	C	0.420889	0.842036	0
96	C	0.42929	0.865951	0.164477
97	C	0.355132	0.886943	0.497846
98	S	0.371824	0.920417	0.693372
99	C	0.46001	0.967663	0.969097
100	O	0.429116	0.940434	0.062512
101	H	0.564307	0.060761	0.036677
102	H	0.679839	0.180037	0.186561
103	H	0.536226	0.109153	0.208406
104	H	0.678295	0.139919	0.495142
105	H	0.499321	0.998756	0.513277
106	H	0.321933	0.836999	0.127075
107	H	0.461077	0.882394	0.23438
108	H	0.320734	0.867616	0.462062
109	O	0.994208	0.496789	0.245729
110	C	0.996328	0.49689	0.071308
111	C	0.963563	0.501386	0.955411
112	C	0.965924	0.502458	0.763958
113	C	0.932412	0.505239	0.65533
114	N	0.914456	0.482877	0.497833
115	C	0.883908	0.492924	0.423093
116	C	0.860081	0.470117	0.248956
117	C	0.82919	0.476474	0.152907
118	S	0.808675	0.443314	0.956338
119	C	0.840693	0.42068	0
120	C	0.866831	0.437518	0.158466
121	C	0.879134	0.523876	0.523622
122	S	0.913882	0.541089	0.716135
123	C	0.000853	0.498545	0.668837
124	C	0.031929	0.49315	0.757335
125	C	0.064348	0.490304	0.644221
126	N	0.082799	0.513529	0.488714
127	C	0.111277	0.501772	0.405616
128	C	0.134728	0.524663	0.231447
129	C	0.158887	0.512991	0.113704
130	S	0.181331	0.548078	0.924754
131	C	0.158857	0.578419	0
132	C	0.134765	0.562981	0.164477
133	C	0.114222	0.468885	0.497846
134	S	0.080464	0.45215	0.693372
135	C	0.032335	0.49237	0.969097
136	O	0.059925	0.488878	0.062512
137	H	0.938015	0.502997	0.036677
138	H	0.817307	0.498737	0.186561
139	H	0.889599	0.427223	0.208406
140	H	0.85763	0.537033	0.495142
141	H	0.000801	0.500343	0.513277
142	H	0.164654	0.485663	0.127075
143	H	0.118007	0.578061	0.23438
144	H	0.133898	0.454088	0.462062
