data_C138H54N6O18S18_2023-05-15_17:07:22
#******************************************
#
# CIF file created by Zeo++
# Zeo++ is an open source package to
# analyze microporous materials
#
#*******************************************

_cell_length_a		67.5026   
_cell_length_b		67.8009   
_cell_length_c		7   
_cell_angle_alpha		90   
_cell_angle_beta		90   
_cell_angle_gamma		119.808   

_symmetry_space_group_name_H-M		'P1'
_symmetry_Int_Tables_number		1
_symmetry_cell_setting		Monoclinic

loop_
_symmetry_equiv_pos_as_xyz
'+x,+y,+z'

loop_
_atom_site_label
_atom_site_type_symbol
_atom_site_fract_x
_atom_site_fract_y
_atom_site_fract_z
1	C	0.3563	0.671477	0.999995
2	O	0.376435	0.675013	0.999991
3	C	0.338076	0.647841	0.999998
4	C	0.341589	0.630419	0
5	N	0.364128	0.634493	0
6	C	0.31479	0.643645	3e-06
7	O	0.298413	0.623274	5e-06
8	C	0.309219	0.661823	6e-06
9	C	0.28779	0.657436	5e-06
10	N	0.270056	0.634258	0
11	C	0.328319	0.68527	4e-06
12	O	0.323892	0.700989	7e-06
13	C	0.35198	0.690518	0.999999
14	C	0.368818	0.711909	0.999998
15	N	0.365461	0.730897	0
16	H	0.327639	0.613459	1e-06
17	H	0.283286	0.670456	8e-06
18	H	0.385828	0.714963	0.999997
19	C	0.6437	0.328523	0.999995
20	O	0.623565	0.324987	0.999991
21	C	0.661924	0.352159	0.999998
22	C	0.658411	0.369581	0
23	N	0.635872	0.365507	0
24	C	0.68521	0.356355	3e-06
25	O	0.701587	0.376726	5e-06
26	C	0.690781	0.338177	6e-06
27	C	0.71221	0.342564	5e-06
28	N	0.729944	0.365742	0
29	C	0.671681	0.31473	4e-06
30	O	0.676108	0.299011	7e-06
31	C	0.64802	0.309482	0.999999
32	C	0.631182	0.288091	0.999998
33	N	0.634539	0.269103	0
34	H	0.672361	0.386541	1e-06
35	H	0.716714	0.329544	8e-06
36	H	0.614172	0.285037	0.999997
37	O	0.507456	0.45844	0.766598
38	C	0.505821	0.473043	0.85613
39	C	0.494633	0.485424	0.765809
40	O	0.48751	0.481201	0.601785
41	C	0.492658	0.502688	0.880048
42	C	0.482339	0.514156	0.79596
43	C	0.480138	0.530718	0.897449
44	C	0.469943	0.543008	0.80577
45	C	0.474664	0.553232	0.628408
46	C	0.461323	0.563709	0.587827
47	C	0.446706	0.561267	0.734832
48	C	0.430928	0.569769	0.738997
49	C	0.417035	0.56909	0.591443
50	C	0.403781	0.579452	0.640757
51	C	0.407982	0.588137	0.824593
52	C	0.398068	0.600085	0.921259
53	C	0.39959	0.605808	0.113165
54	C	0.387893	0.617889	0.158936
55	C	0.377866	0.620895	0
56	S	0.382154	0.609568	0.799904
57	S	0.427799	0.583051	0.935005
58	S	0.449031	0.545857	0.918509
59	C	0.488496	0.53559	0.084427
60	C	0.498928	0.524172	0.167558
61	C	0.501235	0.507498	0.067192
62	C	0.512299	0.495725	0.153464
63	C	0.521032	0.500619	0.339641
64	C	0.531805	0.489474	0.422044
65	C	0.534036	0.472835	0.321634
66	C	0.545007	0.461086	0.412697
67	C	0.546049	0.456766	0.604552
68	C	0.558233	0.444931	0.639288
69	C	0.566283	0.440159	0.47396
70	C	0.578802	0.427922	0.460113
71	C	0.5862	0.419968	0.610211
72	C	0.597674	0.408189	0.548995
73	C	0.599029	0.407281	0.352445
74	C	0.60949	0.396518	0.245367
75	C	0.623428	0.388631	0.317779
76	C	0.630726	0.378501	0.175704
77	C	0.622134	0.379105	0
78	S	0.60563	0.391384	0.003155
79	S	0.586471	0.421143	0.246707
80	S	0.559517	0.451125	0.279431
81	C	0.525196	0.467744	0.136158
82	C	0.51464	0.479086	0.053344
83	C	0.518895	0.517743	0.454666
84	O	0.525764	0.521731	0.619308
85	C	0.507758	0.530199	0.364659
86	O	0.506196	0.544864	0.45417
87	H	0.475941	0.510047	0.649973
88	H	0.487282	0.553463	0.531834
89	H	0.462684	0.572859	0.457388
90	H	0.416183	0.561413	0.45366
91	H	0.391766	0.580399	0.543371
92	H	0.408694	0.601585	0.218191
93	H	0.387036	0.623872	0.30049
94	H	0.487216	0.548602	0.16629
95	H	0.53865	0.494109	0.566344
96	H	0.53826	0.461604	0.716977
97	H	0.560614	0.440001	0.780849
98	H	0.583528	0.422261	0.759101
99	H	0.604448	0.400661	0.646973
100	H	0.628332	0.38999	0.466653
101	H	0.641655	0.371333	0.202979
102	H	0.526302	0.454709	0.053317
103	O	0.541397	0.048691	0.766598
104	C	0.526764	0.03252	0.85613
105	C	0.514396	0.009069	0.765809
106	O	0.518657	0.006198	0.601785
107	C	0.497097	0.98991	0.880048
108	C	0.48564	0.968231	0.79596
109	C	0.469045	0.949546	0.897449
110	C	0.456764	0.927174	0.80577
111	C	0.446497	0.921682	0.628408
112	C	0.436046	0.897987	0.587827
113	C	0.43855	0.885895	0.734832
114	C	0.430088	0.861749	0.738997
115	C	0.430822	0.848619	0.591443
116	C	0.420486	0.825127	0.640757
117	C	0.411763	0.82065	0.824593
118	C	0.399824	0.798897	0.921259
119	C	0.39408	0.794708	0.113165
120	C	0.382014	0.771051	0.158936
121	C	0.37904	0.758093	0
122	S	0.390379	0.773637	0.799904
123	S	0.416785	0.845409	0.935005
124	S	0.453989	0.903556	0.918509
125	C	0.464129	0.952999	0.084427
126	C	0.475535	0.974738	0.167558
127	C	0.492242	0.993641	0.067192
128	C	0.504001	0.016363	0.153464
129	C	0.499061	0.020165	0.339641
130	C	0.510192	0.041971	0.422044
131	C	0.526864	0.060763	0.321634
132	C	0.538599	0.083369	0.412697
133	C	0.542926	0.088707	0.604552
134	C	0.554743	0.112603	0.639288
135	C	0.559496	0.125356	0.47396
136	C	0.571715	0.149985	0.460113
137	C	0.57966	0.16526	0.610211
138	C	0.591424	0.188395	0.548995
139	C	0.592329	0.190646	0.352445
140	C	0.603079	0.211762	0.245367
141	C	0.610932	0.23347	0.317779
142	C	0.621058	0.250811	0.175704
143	C	0.620485	0.241672	0
144	S	0.60824	0.213041	0.003155
145	S	0.578482	0.164359	0.246707
146	S	0.548529	0.107709	0.279431
147	C	0.532002	0.057051	0.136158
148	C	0.520672	0.035263	0.053344
149	C	0.481903	0.000984	0.454666
150	O	0.477878	0.003837	0.619308
151	C	0.469459	0.977509	0.364659
152	O	0.454764	0.961349	0.45417
153	H	0.489784	0.965967	0.649973
154	H	0.446216	0.933989	0.531834
155	H	0.426868	0.890225	0.457388
156	H	0.438521	0.855419	0.45366
157	H	0.419582	0.812244	0.543371
158	H	0.398279	0.807962	0.218191
159	H	0.37602	0.76424	0.30049
160	H	0.451089	0.938765	0.16629
161	H	0.505519	0.044156	0.566344
162	H	0.538106	0.076148	0.716977
163	H	0.559676	0.11988	0.780849
164	H	0.577372	0.160321	0.759101
165	H	0.598945	0.202625	0.646973
166	H	0.60955	0.236988	0.466653
167	H	0.628201	0.268812	0.202979
168	H	0.545065	0.071134	0.053317
169	O	0.950793	0.492517	0.766598
170	C	0.96706	0.494085	0.85613
171	C	0.990617	0.505154	0.765809
172	O	0.993478	0.512249	0.601785
173	C	0.00989	0.50705	0.880048
174	C	0.031667	0.51726	0.79596
175	C	0.050463	0.519383	0.897449
176	C	0.072938	0.529465	0.80577
177	C	0.078484	0.524735	0.628408
178	C	0.102277	0.537952	0.587827
179	C	0.11439	0.552486	0.734832
180	C	0.138629	0.56813	0.738997
181	C	0.151789	0.581939	0.591443
182	C	0.175379	0.595069	0.640757
183	C	0.1799	0.59086	0.824593
184	C	0.201754	0.600666	0.921259
185	C	0.205975	0.599131	0.113165
186	C	0.229738	0.610708	0.158936
187	C	0.242739	0.62066	0
188	S	0.227113	0.616443	0.799904
189	S	0.155061	0.571188	0.935005
190	S	0.096626	0.550234	0.918509
191	C	0.047021	0.511059	0.084427
192	C	0.025183	0.500737	0.167558
193	C	0.006169	0.498509	0.067192
194	C	0.983345	0.48756	0.153464
195	C	0.979553	0.478864	0.339641
196	C	0.957649	0.468202	0.422044
197	C	0.938746	0.466049	0.321634
198	C	0.916039	0.455192	0.412697
199	C	0.91067	0.454174	0.604552
200	C	0.88667	0.442113	0.639288
201	C	0.873867	0.434133	0.47396
202	C	0.849129	0.42174	0.460113
203	C	0.833785	0.414419	0.610211
204	C	0.810547	0.403063	0.548995
205	C	0.808287	0.40172	0.352445
206	C	0.787077	0.391368	0.245367
207	C	0.765286	0.377547	0.317779
208	C	0.747862	0.370335	0.175704
209	C	0.757026	0.37887	0
210	S	0.785775	0.395222	0.003155
211	S	0.834693	0.414146	0.246707
212	S	0.8916	0.440813	0.279431
213	C	0.942448	0.474853	0.136158
214	C	0.964334	0.485299	0.053344
215	C	0.998847	0.48092	0.454666
216	O	0.996003	0.47408	0.619308
217	C	0.022429	0.49194	0.364659
218	O	0.038686	0.493435	0.45417
219	H	0.033921	0.523633	0.649973
220	H	0.066147	0.512196	0.531834
221	H	0.110094	0.536564	0.457388
222	H	0.144942	0.582815	0.45366
223	H	0.188297	0.607004	0.543371
224	H	0.192672	0.590101	0.218191
225	H	0.236589	0.611536	0.30049
226	H	0.061341	0.512281	0.16629
227	H	0.955477	0.461382	0.566344
228	H	0.92328	0.461896	0.716977
229	H	0.879355	0.439766	0.780849
230	H	0.838745	0.417065	0.759101
231	H	0.796253	0.396361	0.646973
232	H	0.761763	0.372669	0.466653
233	H	0.729789	0.359503	0.202979
234	H	0.928279	0.473805	0.053317
