data_C138H54N6O18S18_2023-05-12_16:28:04
#******************************************
#
# CIF file created by Zeo++
# Zeo++ is an open source package to
# analyze microporous materials
#
#*******************************************

_cell_length_a		67.4428   
_cell_length_b		67.7411   
_cell_length_c		7   
_cell_angle_alpha		90   
_cell_angle_beta		90   
_cell_angle_gamma		119.808   

_symmetry_space_group_name_H-M		'P1'
_symmetry_Int_Tables_number		1
_symmetry_cell_setting		Monoclinic

loop_
_symmetry_equiv_pos_as_xyz
'+x,+y,+z'

loop_
_atom_site_label
_atom_site_type_symbol
_atom_site_fract_x
_atom_site_fract_y
_atom_site_fract_z
1	C	0.356321	0.671481	0.999995
2	O	0.376473	0.675021	0.999991
3	C	0.33808	0.647824	0.999998
4	C	0.341597	0.630387	0
5	N	0.364155	0.634465	0
6	C	0.314774	0.643625	3e-06
7	O	0.298382	0.623236	5e-06
8	C	0.309197	0.661819	6e-06
9	C	0.287749	0.657428	5e-06
10	N	0.27	0.634229	0
11	C	0.328314	0.685286	4e-06
12	O	0.323884	0.701019	7e-06
13	C	0.351996	0.69054	0.999999
14	C	0.36885	0.711949	0.999998
15	N	0.36549	0.730953	0
16	H	0.327634	0.613412	1e-06
17	H	0.283241	0.670459	8e-06
18	H	0.385874	0.715006	0.999997
19	C	0.643679	0.328519	0.999995
20	O	0.623527	0.324979	0.999991
21	C	0.66192	0.352176	0.999998
22	C	0.658403	0.369613	0
23	N	0.635845	0.365535	0
24	C	0.685226	0.356375	3e-06
25	O	0.701618	0.376764	5e-06
26	C	0.690803	0.338181	6e-06
27	C	0.712251	0.342572	5e-06
28	N	0.73	0.365771	0
29	C	0.671686	0.314714	4e-06
30	O	0.676116	0.298981	7e-06
31	C	0.648004	0.30946	0.999999
32	C	0.63115	0.288051	0.999998
33	N	0.63451	0.269047	0
34	H	0.672366	0.386588	1e-06
35	H	0.716759	0.329541	8e-06
36	H	0.614126	0.284994	0.999997
37	O	0.488964	0.490476	0.617517
38	C	0.497664	0.496769	0.459693
39	C	0.513129	0.488493	0.378449
40	O	0.517372	0.475776	0.471507
41	C	0.52292	0.496255	0.185867
42	C	0.53718	0.488525	0.110303
43	C	0.546906	0.495249	0.928503
44	C	0.562389	0.487908	0.847673
45	C	0.580472	0.499492	0.722888
46	C	0.591959	0.4872	0.678134
47	C	0.582604	0.466438	0.770271
48	C	0.590745	0.450343	0.760549
49	C	0.601461	0.446746	0.60736
50	C	0.608457	0.430447	0.647648
51	C	0.60317	0.421939	0.831665
52	C	0.608273	0.405783	0.923719
53	C	0.603113	0.397403	0.108851
54	C	0.611133	0.381977	0.153193
55	C	0.622095	0.379146	0
56	S	0.622782	0.394382	0.806517
57	S	0.589077	0.433577	0.949926
58	S	0.559231	0.461765	0.90162
59	C	0.541923	0.509927	0.825002
60	C	0.527883	0.517834	0.901957
61	C	0.5181	0.511182	0.083854
62	C	0.50357	0.519565	0.164084
63	C	0.499273	0.53499	0.064165
64	C	0.485521	0.543215	0.141649
65	C	0.475354	0.536071	0.321491
66	C	0.461033	0.544559	0.406836
67	C	0.458266	0.547939	0.597678
68	C	0.442967	0.556492	0.626415
69	C	0.434324	0.559623	0.4573
70	C	0.418629	0.568202	0.437084
71	C	0.40174	0.565282	0.564429
72	C	0.389486	0.576329	0.504032
73	C	0.397222	0.587578	0.331812
74	C	0.388686	0.600684	0.233793
75	C	0.376836	0.610439	0.315202
76	C	0.370618	0.622193	0.17968
77	C	0.377905	0.620854	0
78	S	0.391908	0.605971	0.99185
79	S	0.41936	0.584447	0.246618
80	S	0.444317	0.551273	0.266809
81	C	0.479581	0.520676	0.422006
82	C	0.493533	0.512674	0.344847
83	C	0.509608	0.543241	0.873957
84	O	0.507195	0.557631	0.788615
85	C	0.523595	0.533592	0.786566
86	O	0.531168	0.538848	0.624466
87	H	0.540769	0.477298	0.197146
88	H	0.585718	0.516317	0.667529
89	H	0.606804	0.493706	0.585979
90	H	0.604322	0.455418	0.471537
91	H	0.617259	0.425547	0.545022
92	H	0.594044	0.402102	0.210521
93	H	0.608922	0.373676	0.289981
94	H	0.548946	0.515368	0.681896
95	H	0.483009	0.555493	0.059644
96	H	0.466977	0.544714	0.713435
97	H	0.438882	0.560498	0.765601
98	H	0.398093	0.555527	0.695203
99	H	0.375523	0.575835	0.584282
100	H	0.372902	0.609453	0.466281
101	H	0.36142	0.631061	0.214002
102	H	0.471901	0.514602	0.562294
103	O	0.509353	0.998403	0.617517
104	C	0.503011	0.00078	0.459693
105	C	0.511248	0.024392	0.378449
106	O	0.523979	0.041275	0.471507
107	C	0.503429	0.026389	0.185867
108	C	0.511122	0.048258	0.110303
109	C	0.504344	0.051224	0.928503
110	C	0.511644	0.073923	0.847673
111	C	0.49996	0.080351	0.722888
112	C	0.512239	0.10401	0.678134
113	C	0.533088	0.115395	0.770271
114	C	0.549192	0.139518	0.760549
115	C	0.552756	0.15375	0.60736
116	C	0.569069	0.176938	0.647648
117	C	0.577619	0.180159	0.831665
118	C	0.593795	0.201323	0.923719
119	C	0.602215	0.204543	0.108851
120	C	0.617649	0.227879	0.153193
121	C	0.620445	0.241591	0
122	S	0.605168	0.227097	0.806517
123	S	0.566006	0.154562	0.949926
124	S	0.537863	0.096826	0.90162
125	C	0.489649	0.031652	0.825002
126	C	0.481777	0.009825	0.901957
127	C	0.488483	0.006729	0.083854
128	C	0.480135	0.98394	0.164084
129	C	0.464689	0.964306	0.064165
130	C	0.456496	0.942447	0.141649
131	C	0.463697	0.93946	0.321491
132	C	0.455243	0.916775	0.406836
133	C	0.451866	0.910659	0.597678
134	C	0.443351	0.886937	0.626415
135	C	0.440246	0.875229	0.4573
136	C	0.431707	0.851089	0.437084
137	C	0.434699	0.837215	0.564429
138	C	0.423672	0.814035	0.504032
139	C	0.412365	0.810516	0.331812
140	C	0.39926	0.788979	0.233793
141	C	0.389526	0.767486	0.315202
142	C	0.377766	0.749598	0.17968
143	C	0.379081	0.758174	0
144	S	0.393947	0.786913	0.99185
145	S	0.415418	0.835633	0.246618
146	S	0.448578	0.893477	0.266809
147	C	0.479115	0.958997	0.422006
148	C	0.487082	0.980831	0.344847
149	C	0.456377	0.966356	0.873957
150	O	0.441961	0.949624	0.788615
151	C	0.465995	0.989866	0.786566
152	O	0.460697	0.992155	0.624466
153	H	0.522363	0.063008	0.197146
154	H	0.483073	0.068804	0.667529
155	H	0.505658	0.11228	0.585979
156	H	0.544051	0.147953	0.471537
157	H	0.573947	0.190565	0.545022
158	H	0.59754	0.19085	0.210521
159	H	0.625979	0.233951	0.289981
160	H	0.484167	0.03321	0.681896
161	H	0.444198	0.927721	0.059644
162	H	0.455065	0.922528	0.713435
163	H	0.439351	0.878887	0.765601
164	H	0.444492	0.843308	0.695203
165	H	0.424221	0.800652	0.584282
166	H	0.39053	0.76456	0.466281
167	H	0.368912	0.731626	0.214002
168	H	0.485233	0.957416	0.562294
169	O	0.001328	0.510768	0.617517
170	C	0.99897	0.502098	0.459693
171	C	0.975268	0.486763	0.378449
172	O	0.958294	0.482596	0.471507
173	C	0.973296	0.477004	0.185867
174	C	0.951343	0.462864	0.110303
175	C	0.948396	0.453174	0.928503
176	C	0.925613	0.437817	0.847673
177	C	0.919213	0.419804	0.722888
178	C	0.895448	0.408437	0.678134
179	C	0.883953	0.417814	0.770271
180	C	0.859709	0.409786	0.760549
181	C	0.845428	0.399152	0.60736
182	C	0.822119	0.392263	0.647648
183	C	0.818857	0.397549	0.831665
184	C	0.797577	0.392541	0.923719
185	C	0.794317	0.397701	0.108851
186	C	0.770863	0.389792	0.153193
187	C	0.757106	0.37891	0
188	S	0.771695	0.378168	0.806517
189	S	0.844562	0.411508	0.949926
190	S	0.902551	0.441056	0.90162
191	C	0.968074	0.458069	0.825002
192	C	0.989985	0.471989	0.901957
193	C	0.993063	0.481736	0.083854
194	C	0.01594	0.496142	0.164084
195	C	0.035684	0.500352	0.064165
196	C	0.057628	0.513985	0.141649
197	C	0.060595	0.524116	0.321491
198	C	0.083369	0.538313	0.406836
199	C	0.089513	0.541049	0.597678
200	C	0.113327	0.556218	0.626415
201	C	0.125076	0.564795	0.4573
202	C	0.14931	0.580357	0.437084
203	C	0.163206	0.59715	0.564429
204	C	0.186487	0.609284	0.504032
205	C	0.190058	0.601553	0.331812
206	C	0.2117	0.609985	0.233793
207	C	0.233284	0.621722	0.315202
208	C	0.251261	0.627856	0.17968
209	C	0.242659	0.620619	0
210	S	0.213791	0.606763	0.99185
211	S	0.164867	0.579567	0.246618
212	S	0.10675	0.554897	0.266809
213	C	0.04095	0.519974	0.422006
214	C	0.01903	0.506142	0.344847
215	C	0.03366	0.49005	0.873957
216	O	0.050489	0.492392	0.788615
217	C	0.010055	0.476189	0.786566
218	O	0.00778	0.468644	0.624466
219	H	0.936513	0.459341	0.197146
220	H	0.930855	0.414526	0.667529
221	H	0.887183	0.39366	0.585979
222	H	0.851272	0.396276	0.471537
223	H	0.808439	0.383535	0.545022
224	H	0.808061	0.406695	0.210521
225	H	0.764744	0.39202	0.289981
226	H	0.966532	0.451069	0.681896
227	H	0.072438	0.516433	0.059644
228	H	0.077603	0.532405	0.713435
229	H	0.121413	0.560262	0.765601
230	H	0.15706	0.600812	0.695203
231	H	0.199901	0.623161	0.584282
232	H	0.236213	0.625635	0.466281
233	H	0.269313	0.63696	0.214002
234	H	0.042511	0.527629	0.562294
