data_C60H24N6O12S6_2023-05-30_05:45:38
#******************************************
#
# CIF file created by Zeo++
# Zeo++ is an open source package to
# analyze microporous materials
#
#*******************************************

_cell_length_a		33.2775   
_cell_length_b		33.5762   
_cell_length_c		7   
_cell_angle_alpha		90   
_cell_angle_beta		90   
_cell_angle_gamma		119.612   

_symmetry_space_group_name_H-M		'P1'
_symmetry_Int_Tables_number		1
_symmetry_cell_setting		Monoclinic

loop_
_symmetry_equiv_pos_as_xyz
'+x,+y,+z'

loop_
_atom_site_label
_atom_site_type_symbol
_atom_site_fract_x
_atom_site_fract_y
_atom_site_fract_z
1	C	0.379882	0.67636	0.999995
2	O	0.420696	0.683489	0.999991
3	C	0.343104	0.628725	0.999998
4	C	0.350371	0.593614	0
5	N	0.396057	0.601825	0
6	C	0.295904	0.62027	3e-06
7	O	0.262845	0.579214	5e-06
8	C	0.284455	0.656904	6e-06
9	C	0.241023	0.648064	5e-06
10	N	0.205237	0.601351	0
11	C	0.323011	0.704159	4e-06
12	O	0.313906	0.735839	7e-06
13	C	0.370965	0.714737	0.999999
14	C	0.40495	0.757847	0.999998
15	N	0.397988	0.796114	0
16	H	0.322209	0.559433	1e-06
17	H	0.231782	0.674304	8e-06
18	H	0.439429	0.764002	0.999997
19	C	0.620118	0.32364	0.999995
20	O	0.579304	0.316511	0.999991
21	C	0.656896	0.371275	0.999998
22	C	0.649629	0.406386	0
23	N	0.603943	0.398175	0
24	C	0.704096	0.37973	3e-06
25	O	0.737155	0.420786	5e-06
26	C	0.715545	0.343096	6e-06
27	C	0.758977	0.351936	5e-06
28	N	0.794763	0.398649	0
29	C	0.676989	0.295841	4e-06
30	O	0.686094	0.264161	7e-06
31	C	0.629035	0.285263	0.999999
32	C	0.59505	0.242153	0.999998
33	N	0.602012	0.203886	0
34	H	0.677791	0.440567	1e-06
35	H	0.768218	0.325696	8e-06
36	H	0.560571	0.235998	0.999997
37	O	0.508546	0.491628	0.765115
38	C	0.50831	0.498893	0.594085
39	C	0.531766	0.483679	0.458379
40	C	0.527457	0.486978	0.269265
41	C	0.550572	0.47218	0.136359
42	C	0.575719	0.498044	0.981353
43	S	0.599036	0.471201	0.850736
44	C	0.575967	0.425581	0
45	C	0.550961	0.429736	0.146905
46	C	0.498139	0.504532	0.196752
47	C	0.477024	0.522253	0.303046
48	C	0.448755	0.539352	0.220614
49	C	0.409095	0.534673	0.305494
50	S	0.382828	0.557922	0.170458
51	C	0.424033	0.574419	0
52	C	0.457287	0.562822	0.040924
53	C	0.484263	0.523909	0.515033
54	O	0.472027	0.544343	0.624373
55	H	0.552338	0.470206	0.52159
56	H	0.582093	0.531559	0.937242
57	H	0.533628	0.403704	0.255329
58	H	0.492768	0.501879	0.042613
59	H	0.393791	0.518891	0.440963
60	H	0.486348	0.571032	0.947729
61	O	0.507866	0.016508	0.765115
62	C	0.500565	0.009065	0.594085
63	C	0.515674	0.047319	0.458379
64	C	0.512391	0.039791	0.269265
65	C	0.527085	0.077295	0.136359
66	C	0.500894	0.076459	0.981353
67	S	0.52769	0.126113	0.850736
68	C	0.573721	0.148602	0
69	C	0.56974	0.119792	0.146905
70	C	0.494977	0.99343	0.196752
71	C	0.477331	0.955	0.303046
72	C	0.460366	0.910126	0.220614
73	C	0.465378	0.875614	0.305494
74	S	0.442216	0.826614	0.170458
75	C	0.425314	0.850925	0
76	C	0.43671	0.895262	0.040924
77	C	0.47561	0.960504	0.515033
78	O	0.455169	0.928151	0.624373
79	H	0.529055	0.080997	0.52159
80	H	0.467159	0.049498	0.937242
81	H	0.596039	0.128508	0.255329
82	H	0.497685	0.990759	0.042613
83	H	0.48136	0.876164	0.440963
84	H	0.428232	0.915808	0.947729
85	O	0.98287	0.491154	0.765115
86	C	0.990407	0.491331	0.594085
87	C	0.951842	0.468292	0.458379
88	C	0.959433	0.47252	0.269265
89	C	0.921625	0.449815	0.136359
90	C	0.92267	0.424787	0.981353
91	S	0.872555	0.401976	0.850736
92	C	0.849593	0.425107	0
93	C	0.878581	0.449762	0.146905
94	C	0.006165	0.501328	0.196752
95	C	0.044927	0.522036	0.303046
96	C	0.090161	0.549812	0.220614
97	C	0.124808	0.589003	0.305494
98	S	0.174238	0.614754	0.170458
99	C	0.149935	0.573945	0
100	C	0.105284	0.541205	0.040924
101	C	0.039409	0.514877	0.515033
102	O	0.072086	0.526797	0.624373
103	H	0.917889	0.448087	0.52159
104	H	0.95003	0.418233	0.937242
105	H	0.869615	0.467078	0.255329
106	H	0.008828	0.506651	0.042613
107	H	0.124131	0.604236	0.440963
108	H	0.084701	0.51245	0.947729
