data_C108H48N6O12S18_2023-05-15_10:28:07
#******************************************
#
# CIF file created by Zeo++
# Zeo++ is an open source package to
# analyze microporous materials
#
#*******************************************

_cell_length_a		54.6891   
_cell_length_b		54.9876   
_cell_length_c		7   
_cell_angle_alpha		90   
_cell_angle_beta		90   
_cell_angle_gamma		119.763   

_symmetry_space_group_name_H-M		'P1'
_symmetry_Int_Tables_number		1
_symmetry_cell_setting		Monoclinic

loop_
_symmetry_equiv_pos_as_xyz
'+x,+y,+z'

loop_
_atom_site_label
_atom_site_type_symbol
_atom_site_fract_x
_atom_site_fract_y
_atom_site_fract_z
1	C	0.361676	0.672595	0.999995
2	O	0.386524	0.676954	0.999991
3	C	0.339208	0.643464	0.999998
4	C	0.343564	0.621992	0
5	N	0.371379	0.627014	0
6	C	0.310471	0.638294	3e-06
7	O	0.290279	0.613186	5e-06
8	C	0.303574	0.660697	6e-06
9	C	0.277129	0.65529	5e-06
10	N	0.255267	0.626724	0
11	C	0.327123	0.689594	4e-06
12	O	0.321642	0.708968	7e-06
13	C	0.356322	0.696063	0.999999
14	C	0.377082	0.722426	0.999998
15	N	0.372917	0.745828	0
16	H	0.326364	0.60109	1e-06
17	H	0.271555	0.671337	8e-06
18	H	0.398073	0.726191	0.999997
19	C	0.638324	0.327405	0.999995
20	O	0.613476	0.323046	0.999991
21	C	0.660792	0.356536	0.999998
22	C	0.656436	0.378008	0
23	N	0.628621	0.372986	0
24	C	0.689529	0.361706	3e-06
25	O	0.709721	0.386814	5e-06
26	C	0.696426	0.339303	6e-06
27	C	0.722871	0.34471	5e-06
28	N	0.744733	0.373276	0
29	C	0.672877	0.310406	4e-06
30	O	0.678358	0.291032	7e-06
31	C	0.643678	0.303937	0.999999
32	C	0.622918	0.277574	0.999998
33	N	0.627083	0.254172	0
34	H	0.673636	0.39891	1e-06
35	H	0.728445	0.328663	8e-06
36	H	0.601927	0.273809	0.999997
37	O	0.490203	0.509675	0.185546
38	C	0.494689	0.504901	0.022563
39	C	0.496712	0.479647	0.980701
40	C	0.499181	0.47285	0.800236
41	C	0.501275	0.44804	0.774072
42	C	0.484209	0.421246	0.843686
43	C	0.493447	0.402167	0.787985
44	C	0.517395	0.414488	0.675612
45	C	0.532169	0.400955	0.59794
46	C	0.530665	0.376526	0.663138
47	C	0.547654	0.368565	0.554522
48	C	0.561903	0.386944	0.406946
49	C	0.580936	0.384938	0.271812
50	C	0.592648	0.367662	0.286166
51	C	0.610474	0.370451	0.128739
52	C	0.611649	0.389746	0
53	S	0.591975	0.404302	0.064242
54	S	0.554193	0.413618	0.404308
55	S	0.528215	0.449252	0.63973
56	C	0.499145	0.490053	0.642076
57	C	0.498719	0.514142	0.661936
58	C	0.498754	0.529248	0.496341
59	C	0.518062	0.539829	0.348561
60	C	0.510549	0.553409	0.205476
61	C	0.485572	0.55302	0.245053
62	C	0.472135	0.564778	0.128158
63	C	0.476477	0.570898	0.935489
64	C	0.46011	0.582479	0.862364
65	C	0.443502	0.585203	6.7e-05
66	C	0.424675	0.596382	0.972577
67	C	0.423763	0.6113	0.815403
68	C	0.402751	0.619393	0.831305
69	C	0.388351	0.610254	0
70	S	0.399471	0.592349	0.137036
71	S	0.448338	0.573582	0.216608
72	S	0.471507	0.535709	0.455668
73	C	0.498645	0.524671	0.858014
74	O	0.50205	0.548006	0.890397
75	H	0.496278	0.467602	0.104617
76	H	0.465754	0.415408	0.931147
77	H	0.482701	0.380277	0.828868
78	H	0.518086	0.364715	0.78454
79	H	0.54909	0.349995	0.584747
80	H	0.588836	0.353578	0.404835
81	H	0.621629	0.358896	0.113001
82	H	0.499067	0.482025	0.499401
83	H	0.536995	0.538166	0.343265
84	H	0.523253	0.563236	0.079999
85	H	0.490617	0.56711	0.848525
86	H	0.460619	0.58837	0.714208
87	H	0.43767	0.616492	0.69349
88	H	0.398717	0.631219	0.724574
89	O	0.490049	0.980506	0.185546
90	C	0.494816	0.989708	0.022563
91	C	0.520138	0.016849	0.980701
92	C	0.526944	0.026063	0.800236
93	C	0.55182	0.052833	0.774072
94	C	0.578778	0.062566	0.843686
95	C	0.597871	0.09072	0.787985
96	C	0.585398	0.102219	0.675612
97	C	0.598903	0.130347	0.59794
98	C	0.623414	0.153167	0.663138
99	C	0.631319	0.177947	0.554522
100	C	0.612815	0.173793	0.406946
101	C	0.614736	0.194674	0.271812
102	C	0.63201	0.223489	0.286166
103	C	0.629127	0.2384	0.128739
104	C	0.609767	0.220364	0
105	S	0.59526	0.186356	0.064242
106	S	0.586096	0.139597	0.404308
107	S	0.550476	0.078356	0.63973
108	C	0.509689	0.008907	0.642076
109	C	0.485528	0.98451	0.661936
110	C	0.470376	0.969511	0.496341
111	C	0.45967	0.978138	0.348561
112	C	0.446084	0.957169	0.205476
113	C	0.446593	0.932772	0.245053
114	C	0.434863	0.907739	0.128158
115	C	0.428704	0.905956	0.935489
116	C	0.417166	0.87819	0.862364
117	C	0.414512	0.859001	6.7e-05
118	C	0.403389	0.829195	0.972577
119	C	0.388429	0.813443	0.815403
120	C	0.380412	0.78454	0.831305
121	C	0.389647	0.779347	0
122	S	0.407554	0.808201	0.137036
123	S	0.426146	0.875364	0.216608
124	S	0.464025	0.936046	0.455668
125	C	0.474967	0.973958	0.858014
126	O	0.451544	0.954112	0.890397
127	H	0.532223	0.028407	0.104617
128	H	0.584722	0.050065	0.931147
129	H	0.61988	0.101843	0.828868
130	H	0.635321	0.152441	0.78454
131	H	0.649939	0.197853	0.584747
132	H	0.646155	0.233724	0.404835
133	H	0.640665	0.260969	0.113001
134	H	0.517742	0.016819	0.499401
135	H	0.461248	0.998579	0.343265
136	H	0.436166	0.959993	0.079999
137	H	0.432436	0.923754	0.848525
138	H	0.411254	0.872832	0.714208
139	H	0.383155	0.822074	0.69349
140	H	0.368568	0.768768	0.724574
141	O	0.01931	0.509385	0.185546
142	C	0.010057	0.504956	0.022563
143	C	0.982712	0.50307	0.980701
144	C	0.973437	0.500652	0.800236
145	C	0.946467	0.498693	0.774072
146	C	0.936576	0.515754	0.843686
147	C	0.908244	0.506678	0.787985
148	C	0.896769	0.482859	0.675612
149	C	0.868491	0.468264	0.59794
150	C	0.845484	0.469873	0.663138
151	C	0.820589	0.453054	0.554522
152	C	0.824845	0.438829	0.406946
153	C	0.803891	0.419954	0.271812
154	C	0.774905	0.408415	0.286166
155	C	0.759962	0.390714	0.128739
156	C	0.778146	0.389456	0
157	S	0.812327	0.408908	0.064242
158	S	0.859273	0.446351	0.404308
159	S	0.920872	0.471957	0.63973
160	C	0.990729	0.500606	0.642076
161	C	0.015316	0.500914	0.661936
162	C	0.030432	0.500807	0.496341
163	C	0.021831	0.481599	0.348561
164	C	0.042929	0.488988	0.205476
165	C	0.067397	0.513773	0.245053
166	C	0.092564	0.527049	0.128158
167	C	0.094382	0.522712	0.935489
168	C	0.122287	0.538897	0.862364
169	C	0.141548	0.555362	6.7e-05
170	C	0.171499	0.573989	0.972577
171	C	0.18737	0.574823	0.815403
172	C	0.216401	0.595633	0.831305
173	C	0.221565	0.609964	0
174	S	0.192538	0.599016	0.137036
175	S	0.125079	0.550619	0.216608
176	S	0.064031	0.527811	0.455668
177	C	0.02595	0.500937	0.858014
178	O	0.045969	0.497447	0.890397
179	H	0.971062	0.503558	0.104617
180	H	0.949086	0.534093	0.931147
181	H	0.896982	0.517445	0.828868
182	H	0.846155	0.48241	0.78454
183	H	0.800534	0.451718	0.584747
184	H	0.764571	0.412264	0.404835
185	H	0.737268	0.379701	0.113001
186	H	0.982754	0.500722	0.499401
187	H	0.00132	0.462821	0.343265
188	H	0.040143	0.476337	0.079999
189	H	0.076511	0.508701	0.848525
190	H	0.12769	0.538364	0.714208
191	H	0.178738	0.561	0.69349
192	H	0.232278	0.599579	0.724574
