data_C60H24N6O12S6_2023-05-12_22:51:23
#******************************************
#
# CIF file created by Zeo++
# Zeo++ is an open source package to
# analyze microporous materials
#
#*******************************************

_cell_length_a		34.3598   
_cell_length_b		34.6585   
_cell_length_c		7   
_cell_angle_alpha		90   
_cell_angle_beta		90   
_cell_angle_gamma		119.624   

_symmetry_space_group_name_H-M		'P1'
_symmetry_Int_Tables_number		1
_symmetry_cell_setting		Monoclinic

loop_
_symmetry_equiv_pos_as_xyz
'+x,+y,+z'

loop_
_atom_site_label
_atom_site_type_symbol
_atom_site_fract_x
_atom_site_fract_y
_atom_site_fract_z
1	C	0.378418	0.676059	0.999995
2	O	0.417949	0.682965	0.999991
3	C	0.342787	0.629906	0.999998
4	C	0.349817	0.595887	0
5	N	0.394066	0.603842	0
6	C	0.297072	0.621714	3e-06
7	O	0.265045	0.581934	5e-06
8	C	0.285993	0.657208	6e-06
9	C	0.243926	0.648643	5e-06
10	N	0.209256	0.603383	0
11	C	0.323345	0.702993	4e-06
12	O	0.314534	0.733687	7e-06
13	C	0.369792	0.713242	0.999999
14	C	0.402716	0.75501	0.999998
15	N	0.395982	0.792087	0
16	H	0.322534	0.562769	1e-06
17	H	0.234983	0.674066	8e-06
18	H	0.43611	0.760974	0.999997
19	C	0.621582	0.323941	0.999995
20	O	0.582051	0.317035	0.999991
21	C	0.657213	0.370094	0.999998
22	C	0.650183	0.404113	0
23	N	0.605934	0.396158	0
24	C	0.702928	0.378286	3e-06
25	O	0.734955	0.418066	5e-06
26	C	0.714007	0.342792	6e-06
27	C	0.756074	0.351357	5e-06
28	N	0.790744	0.396617	0
29	C	0.676655	0.297007	4e-06
30	O	0.685466	0.266313	7e-06
31	C	0.630208	0.286758	0.999999
32	C	0.597284	0.24499	0.999998
33	N	0.604018	0.207913	0
34	H	0.677466	0.437231	1e-06
35	H	0.765017	0.325934	8e-06
36	H	0.56389	0.239026	0.999997
37	O	0.496995	0.502946	0.692544
38	C	0.494074	0.49732	0.519509
39	C	0.471261	0.515481	0.40215
40	C	0.469106	0.510932	0.211347
41	C	0.445957	0.52964	0.109772
42	C	0.450411	0.571584	0.124602
43	C	0.421154	0.577289	0
44	C	0.394813	0.540446	0.892304
45	S	0.405552	0.498334	0.942054
46	C	0.489877	0.488164	0.117076
47	C	0.510502	0.468948	0.206992
48	C	0.530074	0.447269	0.102222
49	C	0.570928	0.449097	0.131625
50	C	0.578846	0.422711	0
51	C	0.544545	0.400707	0.872866
52	S	0.502089	0.411865	0.913646
53	C	0.513782	0.471824	0.419744
54	O	0.531519	0.455009	0.514073
55	H	0.456491	0.531938	0.481351
56	H	0.473926	0.59697	0.220523
57	H	0.369854	0.535956	0.787151
58	H	0.48829	0.487808	0.961544
59	H	0.593917	0.468594	0.244455
60	H	0.542013	0.378485	0.759054
61	O	0.496595	0.993879	0.692544
62	C	0.502271	0.996578	0.519509
63	C	0.484193	0.956023	0.40215
64	C	0.488781	0.958408	0.211347
65	C	0.470156	0.916979	0.109772
66	C	0.427973	0.87975	0.124602
67	C	0.422461	0.845193	0
68	C	0.459684	0.855742	0.892304
69	S	0.501921	0.908142	0.942054
70	C	0.511504	0.00152	0.117076
71	C	0.530658	0.040961	0.206992
72	C	0.552295	0.081806	0.102222
73	C	0.55015	0.120342	0.131625
74	C	0.576605	0.154349	0
75	C	0.598976	0.142309	0.872866
76	S	0.588084	0.089302	0.913646
77	C	0.527743	0.041346	0.419744
78	O	0.544507	0.075552	0.514073
79	H	0.467768	0.925102	0.481351
80	H	0.402284	0.877782	0.220523
81	H	0.464384	0.835547	0.787151
82	H	0.511873	0.000305	0.961544
83	H	0.530383	0.123698	0.244455
84	H	0.621326	0.161862	0.759054
85	O	0.005714	0.502487	0.692544
86	C	0.00296	0.505414	0.519509
87	C	0.04385	0.527809	0.40215
88	C	0.041418	0.529971	0.211347
89	C	0.083191	0.552693	0.109772
90	C	0.120921	0.547978	0.124602
91	C	0.155689	0.57683	0
92	C	0.144808	0.603125	0.892304
93	S	0.091832	0.592836	0.942054
94	C	0.997923	0.509628	0.117076
95	C	0.958144	0.489404	0.206992
96	C	0.916936	0.470237	0.102222
97	C	0.878227	0.429873	0.131625
98	C	0.843853	0.422252	0
99	C	0.855783	0.456296	0.872866
100	S	0.909132	0.498144	0.913646
101	C	0.957779	0.486142	0.419744
102	O	0.923279	0.468751	0.514073
103	H	0.075046	0.542272	0.481351
104	H	0.123094	0.52456	0.220523
105	H	0.165067	0.627809	0.787151
106	H	0.999141	0.511198	0.961544
107	H	0.875004	0.40702	0.244455
108	H	0.835965	0.458965	0.759054
