data_C114H42N6O18S12_2023-05-11_12:15:46
#******************************************
#
# CIF file created by Zeo++
# Zeo++ is an open source package to
# analyze microporous materials
#
#*******************************************

_cell_length_a		50.4087   
_cell_length_b		50.7072   
_cell_length_c		7   
_cell_angle_alpha		90   
_cell_angle_beta		90   
_cell_angle_gamma		119.743   

_symmetry_space_group_name_H-M		'P1'
_symmetry_Int_Tables_number		1
_symmetry_cell_setting		Monoclinic

loop_
_symmetry_equiv_pos_as_xyz
'+x,+y,+z'

loop_
_atom_site_label
_atom_site_type_symbol
_atom_site_fract_x
_atom_site_fract_y
_atom_site_fract_z
1	C	0.36408	0.673094	0.999995
2	O	0.391036	0.67782	0.999991
3	C	0.339717	0.641511	0.999998
4	C	0.344452	0.618231	0
5	N	0.374627	0.623675	0
6	C	0.308543	0.635905	3e-06
7	O	0.286647	0.608683	5e-06
8	C	0.301049	0.660194	6e-06
9	C	0.272362	0.654333	5e-06
10	N	0.248655	0.623361	0
11	C	0.326585	0.691525	4e-06
12	O	0.32063	0.712529	7e-06
13	C	0.358261	0.698538	0.999999
14	C	0.380772	0.727121	0.999998
15	N	0.376243	0.752493	0
16	H	0.325801	0.595568	1e-06
17	H	0.266308	0.67173	8e-06
18	H	0.403544	0.731202	0.999997
19	C	0.63592	0.326906	0.999995
20	O	0.608964	0.32218	0.999991
21	C	0.660283	0.358489	0.999998
22	C	0.655548	0.381769	0
23	N	0.625373	0.376325	0
24	C	0.691457	0.364095	3e-06
25	O	0.713353	0.391317	5e-06
26	C	0.698951	0.339806	6e-06
27	C	0.727638	0.345667	5e-06
28	N	0.751345	0.376639	0
29	C	0.673415	0.308475	4e-06
30	O	0.67937	0.287471	7e-06
31	C	0.641739	0.301462	0.999999
32	C	0.619228	0.272879	0.999998
33	N	0.623757	0.247507	0
34	H	0.674199	0.404432	1e-06
35	H	0.733692	0.32827	8e-06
36	H	0.596456	0.268798	0.999997
37	O	0.479291	0.435932	0.5102
38	C	0.496269	0.463378	0.514737
39	C	0.530619	0.47702	0.525905
40	O	0.541365	0.464309	0.619896
41	C	0.54953	0.50679	0.431293
42	C	0.579553	0.516225	0.368355
43	C	0.593466	0.496882	0.374872
44	C	0.613948	0.49682	0.505238
45	C	0.622468	0.474541	0.460743
46	C	0.608429	0.458564	0.297062
47	C	0.61295	0.432416	0.209423
48	C	0.631755	0.422831	0.289529
49	S	0.631852	0.394096	0.160682
50	C	0.606953	0.394496	0
51	C	0.59843	0.415746	0.039895
52	S	0.585244	0.470568	0.198313
53	C	0.596873	0.545284	0.288658
54	C	0.584656	0.564477	0.270769
55	C	0.554816	0.554686	0.332315
56	C	0.536487	0.525724	0.411549
57	C	0.50445	0.515369	0.465284
58	C	0.492425	0.535321	0.46651
59	C	0.514149	0.567888	0.429864
60	O	0.511315	0.588458	0.498689
61	C	0.542249	0.575306	0.312488
62	O	0.553899	0.597442	0.207734
63	C	0.461286	0.52478	0.506378
64	C	0.447299	0.544049	0.498168
65	C	0.439772	0.557127	0.645863
66	C	0.426037	0.574169	0.579
67	C	0.423293	0.573291	0.382794
68	C	0.409153	0.589781	0.264326
69	C	0.397935	0.606986	0.34712
70	S	0.384046	0.621872	0.18059
71	C	0.393047	0.605504	0
72	C	0.406284	0.588988	0.060898
73	S	0.437122	0.551892	0.281156
74	C	0.442205	0.493965	0.54984
75	C	0.453683	0.474032	0.552577
76	C	0.484497	0.48479	0.511101
77	H	0.622189	0.51167	0.628476
78	H	0.638042	0.470687	0.546991
79	H	0.645568	0.430986	0.417085
80	H	0.582638	0.419154	0.952754
81	H	0.620042	0.553013	0.238143
82	H	0.598394	0.586964	0.208223
83	H	0.444222	0.555022	0.794887
84	H	0.418835	0.586434	0.672525
85	H	0.397032	0.611798	0.496608
86	H	0.41356	0.577026	0.965185
87	H	0.418056	0.485256	0.580135
88	H	0.43854	0.450146	0.586275
89	O	0.564071	0.043046	0.5102
90	C	0.536445	0.032576	0.514737
91	C	0.52258	0.053065	0.525905
92	O	0.535279	0.076366	0.619896
93	C	0.492614	0.042201	0.431293
94	C	0.482992	0.062583	0.368355
95	C	0.502327	0.095621	0.374872
96	C	0.502284	0.115993	0.505238
97	C	0.524593	0.146604	0.460743
98	C	0.540696	0.148578	0.297062
99	C	0.566908	0.179074	0.209423
100	C	0.576427	0.207256	0.289529
101	S	0.605258	0.235939	0.160682
102	C	0.604985	0.210852	0
103	C	0.583709	0.181261	0.039895
104	S	0.528771	0.113647	0.198313
105	C	0.453747	0.050849	0.288658
106	C	0.434553	0.019641	0.270769
107	C	0.444531	0.999793	0.332315
108	C	0.473684	0.010431	0.411549
109	C	0.484239	0.988966	0.465284
110	C	0.464283	0.957194	0.46651
111	C	0.431495	0.946336	0.429864
112	O	0.410871	0.923062	0.498689
113	C	0.423907	0.966819	0.312488
114	O	0.401637	0.956348	0.207734
115	C	0.47502	0.936805	0.506378
116	C	0.455759	0.903766	0.498168
117	C	0.442676	0.883292	0.645863
118	C	0.425648	0.852719	0.579
119	C	0.426544	0.850872	0.382794
120	C	0.410071	0.820446	0.264326
121	C	0.392867	0.792207	0.34712
122	S	0.378004	0.763626	0.18059
123	C	0.394379	0.788835	0
124	C	0.410882	0.818391	0.060898
125	S	0.447943	0.885872	0.281156
126	C	0.506036	0.94854	0.54984
127	C	0.525976	0.979751	0.552577
128	C	0.515023	0.999603	0.511101
129	H	0.487342	0.10939	0.628476
130	H	0.528379	0.165881	0.546991
131	H	0.568174	0.212839	0.417085
132	H	0.58037	0.162211	0.952754
133	H	0.445872	0.066133	0.238143
134	H	0.41192	0.010891	0.208223
135	H	0.444765	0.889799	0.794887
136	H	0.41338	0.833376	0.672525
137	H	0.388044	0.786524	0.496608
138	H	0.422847	0.837506	0.965185
139	H	0.514899	0.933259	0.580135
140	H	0.55002	0.988499	0.586275
141	O	0.956164	0.520551	0.5102
142	C	0.966811	0.503574	0.514737
143	C	0.946326	0.469444	0.525905
144	O	0.922882	0.458855	0.619896
145	C	0.957381	0.450539	0.431293
146	C	0.936981	0.420721	0.368355
147	C	0.903732	0.407026	0.374872
148	C	0.883293	0.386716	0.505238
149	C	0.852465	0.378384	0.460743
150	C	0.850401	0.392387	0.297062
151	C	0.819668	0.388039	0.209423
152	C	0.791343	0.369442	0.289529
153	S	0.762416	0.369495	0.160682
154	C	0.787588	0.394182	0
155	C	0.817387	0.402523	0.039895
156	S	0.88551	0.415314	0.198313
157	C	0.948905	0.403397	0.288658
158	C	0.980316	0.415412	0.270769
159	C	0.000179	0.44505	0.332315
160	C	0.989354	0.463374	0.411549
161	C	0.010837	0.495195	0.465284
162	C	0.042818	0.507014	0.46651
163	C	0.053881	0.485305	0.429864
164	O	0.077339	0.488009	0.498689
165	C	0.033369	0.457404	0.312488
166	O	0.04399	0.445739	0.207734
167	C	0.063219	0.537945	0.506378
168	C	0.096468	0.551714	0.498168
169	C	0.117077	0.55911	0.645863
170	C	0.14784	0.572641	0.579
171	C	0.149689	0.575367	0.382794
172	C	0.180301	0.589301	0.264326
173	C	0.208724	0.600336	0.34712
174	S	0.237476	0.614031	0.18059
175	C	0.212099	0.60519	0
176	C	0.182359	0.592151	0.060898
177	S	0.114461	0.561765	0.281156
178	C	0.051284	0.557024	0.54984
179	C	0.019867	0.545746	0.552577
180	C	5e-06	0.515137	0.511101
181	H	0.889995	0.378469	0.628476
182	H	0.833104	0.362961	0.546991
183	H	0.785784	0.355704	0.417085
184	H	0.836517	0.418163	0.952754
185	H	0.933611	0.380383	0.238143
186	H	0.989212	0.401674	0.208223
187	H	0.110538	0.554708	0.794887
188	H	0.167311	0.579719	0.672525
189	H	0.21445	0.601206	0.496608
190	H	0.163118	0.584998	0.965185
191	H	0.066571	0.581014	0.580135
192	H	0.010965	0.560884	0.586275
