data_C114H42N6O18S12_2023-05-15_10:36:23
#******************************************
#
# CIF file created by Zeo++
# Zeo++ is an open source package to
# analyze microporous materials
#
#*******************************************

_cell_length_a		53.4229   
_cell_length_b		53.7214   
_cell_length_c		7   
_cell_angle_alpha		90   
_cell_angle_beta		90   
_cell_angle_gamma		119.757   

_symmetry_space_group_name_H-M		'P1'
_symmetry_Int_Tables_number		1
_symmetry_cell_setting		Monoclinic

loop_
_symmetry_equiv_pos_as_xyz
'+x,+y,+z'

loop_
_atom_site_label
_atom_site_type_symbol
_atom_site_fract_x
_atom_site_fract_y
_atom_site_fract_z
1	C	0.362347	0.672734	0.999995
2	O	0.387784	0.677196	0.999991
3	C	0.33935	0.642919	0.999998
4	C	0.343812	0.620942	0
5	N	0.372285	0.626081	0
6	C	0.309933	0.637627	3e-06
7	O	0.289265	0.611929	5e-06
8	C	0.302869	0.660556	6e-06
9	C	0.275799	0.655023	5e-06
10	N	0.253421	0.625785	0
11	C	0.326973	0.690134	4e-06
12	O	0.32136	0.709962	7e-06
13	C	0.356863	0.696755	0.999999
14	C	0.378112	0.723737	0.999998
15	N	0.373846	0.747689	0
16	H	0.326207	0.599548	1e-06
17	H	0.270091	0.671447	8e-06
18	H	0.399601	0.72759	0.999997
19	C	0.637653	0.327266	0.999995
20	O	0.612216	0.322804	0.999991
21	C	0.66065	0.357081	0.999998
22	C	0.656188	0.379058	0
23	N	0.627715	0.373919	0
24	C	0.690067	0.362373	3e-06
25	O	0.710735	0.388071	5e-06
26	C	0.697131	0.339444	6e-06
27	C	0.724201	0.344977	5e-06
28	N	0.746579	0.374215	0
29	C	0.673027	0.309866	4e-06
30	O	0.67864	0.290038	7e-06
31	C	0.643137	0.303245	0.999999
32	C	0.621888	0.276263	0.999998
33	N	0.626154	0.252311	0
34	H	0.673793	0.400452	1e-06
35	H	0.729909	0.328553	8e-06
36	H	0.600399	0.27241	0.999997
37	O	0.594042	0.561855	0.80869
38	C	0.572569	0.547354	0.904875
39	C	0.566324	0.518671	0.985299
40	O	0.572356	0.503307	0.890781
41	C	0.551738	0.510428	0.173862
42	C	0.55419	0.490661	0.294761
43	C	0.572403	0.478076	0.251481
44	C	0.602044	0.491257	0.240582
45	C	0.611686	0.471545	0.193739
46	C	0.589282	0.443717	0.171708
47	C	0.591843	0.418911	0.12224
48	C	0.614329	0.41902	0.022792
49	C	0.610339	0.391072	0
50	C	0.585374	0.370149	0.081132
51	S	0.566509	0.384492	0.186317
52	S	0.556693	0.442068	0.207374
53	C	0.539356	0.483428	0.469725
54	C	0.522313	0.495184	0.522649
55	C	0.519954	0.514474	0.400534
56	C	0.534681	0.522806	0.225558
57	C	0.532837	0.544395	0.104378
58	C	0.512863	0.553863	0.141946
59	C	0.492358	0.539699	0.301739
60	O	0.468371	0.537103	0.30903
61	C	0.501787	0.526679	0.458195
62	O	0.494715	0.526568	0.624076
63	C	0.512128	0.57535	0.029453
64	C	0.492686	0.58671	0.066881
65	C	0.492204	0.602558	0.220384
66	C	0.469752	0.609518	0.204644
67	C	0.453752	0.599117	0.038892
68	C	0.429417	0.602252	0.981807
69	C	0.411173	0.606362	0.102053
70	C	0.389661	0.608928	0
71	C	0.391582	0.60692	0.806033
72	S	0.419785	0.601879	0.746518
73	S	0.466252	0.580764	0.90514
74	C	0.531816	0.587428	0.878033
75	C	0.551472	0.578279	0.837747
76	C	0.5517	0.556858	0.949479
77	H	0.616329	0.51399	0.262897
78	H	0.634204	0.477741	0.177436
79	H	0.632623	0.438334	0.967807
80	H	0.577178	0.347269	0.084399
81	H	0.541118	0.468505	0.566898
82	H	0.510908	0.489231	0.658747
83	H	0.506958	0.608735	0.340027
84	H	0.465712	0.621716	0.311268
85	H	0.413142	0.607211	0.256239
86	H	0.378002	0.60813	0.696165
87	H	0.53199	0.604283	0.790253
88	H	0.566511	0.587864	0.719275
89	O	0.437192	0.031591	0.80869
90	C	0.451844	0.02472	0.904875
91	C	0.480647	0.047067	0.985299
92	O	0.49603	0.068341	0.890781
93	C	0.488987	0.0408	0.173862
94	C	0.508804	0.062903	0.294761
95	C	0.52134	0.093495	0.251481
96	C	0.507973	0.109783	0.240582
97	C	0.527699	0.138964	0.193739
98	C	0.555724	0.144431	0.171708
99	C	0.580596	0.171656	0.12224
100	C	0.580377	0.193855	0.022792
101	C	0.608432	0.217707	0
102	C	0.629543	0.213763	0.081132
103	S	0.615247	0.180776	0.186317
104	S	0.557537	0.113742	0.207374
105	C	0.516132	0.055385	0.469725
106	C	0.504422	0.026779	0.522649
107	C	0.485084	0.005243	0.400534
108	C	0.476653	0.011561	0.225558
109	C	0.455006	0.988249	0.104378
110	C	0.445605	0.959013	0.141946
111	C	0.459914	0.952766	0.301739
112	O	0.462635	0.931553	0.30903
113	C	0.472928	0.975076	0.458195
114	O	0.473075	0.968171	0.624076
115	C	0.424055	0.936901	0.029453
116	C	0.412753	0.906309	0.066881
117	C	0.396858	0.89006	0.220384
118	C	0.389985	0.860861	0.204644
119	C	0.400498	0.855339	0.038892
120	C	0.397471	0.828079	0.981807
121	C	0.393437	0.80589	0.102053
122	C	0.390969	0.781997	0
123	C	0.392973	0.7859	0.806033
124	S	0.397893	0.818895	0.746518
125	S	0.418847	0.886003	0.90514
126	C	0.411842	0.944413	0.878033
127	C	0.420924	0.973016	0.837747
128	C	0.442411	0.994559	0.949479
129	H	0.485099	0.101332	0.262897
130	H	0.521374	0.155136	0.177436
131	H	0.560912	0.192782	0.967807
132	H	0.652535	0.2284	0.084399
133	H	0.531093	0.071983	0.566898
134	H	0.51045	0.02139	0.658747
135	H	0.390589	0.89855	0.340027
136	H	0.377769	0.844715	0.311268
137	H	0.392576	0.806999	0.256239
138	H	0.391826	0.771225	0.696165
139	H	0.394934	0.927813	0.790253
140	H	0.411236	0.978397	0.719275
141	O	0.968318	0.40611	0.80869
142	C	0.975139	0.427482	0.904875
143	C	0.952582	0.433817	0.985299
144	O	0.931166	0.427908	0.890781
145	C	0.958827	0.448327	0.173862
146	C	0.936559	0.445991	0.294761
147	C	0.905809	0.427985	0.251481
148	C	0.889535	0.398516	0.240582
149	C	0.860166	0.389046	0.193739
150	C	0.854546	0.411408	0.171708
151	C	0.827113	0.408989	0.12224
152	C	0.804846	0.386681	0.022792
153	C	0.780782	0.390776	0
154	C	0.784635	0.415644	0.081132
155	S	0.817796	0.434288	0.186317
156	S	0.885322	0.443745	0.207374
157	C	0.944064	0.460742	0.469725
158	C	0.972818	0.477592	0.522649
159	C	0.994515	0.479838	0.400534
160	C	0.988219	0.465188	0.225558
161	C	0.01171	0.466912	0.104378
162	C	0.041084	0.48668	0.141946
163	C	0.04728	0.507091	0.301739
164	O	0.068547	0.5309	0.30903
165	C	0.024837	0.497801	0.458195
166	O	0.031763	0.504817	0.624076
167	C	0.06337	0.487305	0.029453
168	C	0.094114	0.506536	0.066881
169	C	0.110491	0.506937	0.220384
170	C	0.139815	0.529176	0.204644
171	C	0.145303	0.5451	0.038892
172	C	0.172664	0.569225	0.981807
173	C	0.194942	0.587303	0.102053
174	C	0.218923	0.608631	0
175	C	0.214997	0.606735	0.806033
176	S	0.181874	0.578782	0.746518
177	S	0.114453	0.532788	0.90514
178	C	0.055894	0.467714	0.878033
179	C	0.027157	0.44826	0.837747
180	C	0.005442	0.448139	0.949479
181	H	0.898125	0.384234	0.262897
182	H	0.843974	0.366678	0.177436
183	H	0.806017	0.368439	0.967807
184	H	0.76984	0.423886	0.084399
185	H	0.927341	0.459067	0.566898
186	H	0.978194	0.488935	0.658747
187	H	0.102005	0.49227	0.340027
188	H	0.156071	0.533124	0.311268
189	H	0.193834	0.585346	0.256239
190	H	0.229724	0.620201	0.696165
191	H	0.072628	0.46746	0.790253
192	H	0.021806	0.433294	0.719275
