data_C60H24N6O12S6_2023-05-11_20:03:05
#******************************************
#
# CIF file created by Zeo++
# Zeo++ is an open source package to
# analyze microporous materials
#
#*******************************************

_cell_length_a		33.4557   
_cell_length_b		33.7544   
_cell_length_c		7   
_cell_angle_alpha		90   
_cell_angle_beta		90   
_cell_angle_gamma		119.614   

_symmetry_space_group_name_H-M		'P1'
_symmetry_Int_Tables_number		1
_symmetry_cell_setting		Monoclinic

loop_
_symmetry_equiv_pos_as_xyz
'+x,+y,+z'

loop_
_atom_site_label
_atom_site_type_symbol
_atom_site_fract_x
_atom_site_fract_y
_atom_site_fract_z
1	C	0.379634	0.676309	0.999995
2	O	0.420232	0.6834	0.999991
3	C	0.34305	0.628925	0.999998
4	C	0.350277	0.593998	0
5	N	0.39572	0.602166	0
6	C	0.296101	0.620514	3e-06
7	O	0.263217	0.579674	5e-06
8	C	0.284715	0.656956	6e-06
9	C	0.241514	0.648162	5e-06
10	N	0.205916	0.601695	0
11	C	0.323068	0.703962	4e-06
12	O	0.314012	0.735475	7e-06
13	C	0.370767	0.714484	0.999999
14	C	0.404572	0.757367	0.999998
15	N	0.397649	0.795433	0
16	H	0.322264	0.559997	1e-06
17	H	0.232323	0.674264	8e-06
18	H	0.438868	0.76349	0.999997
19	C	0.620366	0.323691	0.999995
20	O	0.579768	0.3166	0.999991
21	C	0.65695	0.371075	0.999998
22	C	0.649723	0.406002	0
23	N	0.60428	0.397834	0
24	C	0.703899	0.379486	3e-06
25	O	0.736783	0.420326	5e-06
26	C	0.715285	0.343044	6e-06
27	C	0.758486	0.351838	5e-06
28	N	0.794084	0.398305	0
29	C	0.676932	0.296038	4e-06
30	O	0.685988	0.264525	7e-06
31	C	0.629233	0.285516	0.999999
32	C	0.595428	0.242633	0.999998
33	N	0.602351	0.204567	0
34	H	0.677736	0.440003	1e-06
35	H	0.767677	0.325736	8e-06
36	H	0.561132	0.23651	0.999997
37	O	0.503929	0.49615	0.751347
38	C	0.499782	0.496316	0.57785
39	C	0.48252	0.524468	0.488849
40	C	0.482049	0.528403	0.298185
41	C	0.4649	0.555701	0.209931
42	C	0.47729	0.599488	0.267645
43	S	0.451163	0.622786	0.133608
44	C	0.423546	0.574904	0
45	C	0.433356	0.541467	0.052728
46	C	0.499691	0.50536	0.177231
47	C	0.514014	0.476541	0.237529
48	C	0.530981	0.454654	0.10986
49	C	0.512998	0.43894	0.92976
50	S	0.540844	0.415003	0.812214
51	C	0.576454	0.425096	0
52	C	0.568186	0.446253	0.149939
53	C	0.511928	0.46762	0.448176
54	O	0.519298	0.438606	0.51817
55	H	0.470377	0.54108	0.586853
56	H	0.500575	0.619498	0.380877
57	H	0.418531	0.50849	0.98354
58	H	0.501859	0.51346	0.025504
59	H	0.484657	0.43979	0.859292
60	H	0.587622	0.455077	0.282112
61	O	0.503359	0.007464	0.751347
62	C	0.503225	0.003205	0.57785
63	C	0.475065	0.958228	0.488849
64	C	0.471114	0.953859	0.298185
65	C	0.443811	0.909841	0.209931
66	C	0.399708	0.878627	0.267645
67	S	0.376495	0.829714	0.133608
68	C	0.424832	0.849957	0
69	C	0.458362	0.892821	0.052728
70	C	0.494136	0.994142	0.177231
71	C	0.522989	0.036878	0.237529
72	C	0.544854	0.075348	0.10986
73	C	0.560787	0.073184	0.92976
74	S	0.584629	0.124429	0.812214
75	C	0.574209	0.149573	0
76	C	0.553009	0.120418	0.149939
77	C	0.531971	0.043671	0.448176
78	O	0.561074	0.079736	0.51817
79	H	0.458463	0.929755	0.586853
80	H	0.379416	0.881761	0.380877
81	H	0.49162	0.910904	0.98354
82	H	0.485978	0.988245	0.025504
83	H	0.560153	0.044359	0.859292
84	H	0.54399	0.130851	0.282112
85	O	0.991997	0.495679	0.751347
86	C	0.996279	0.499773	0.57785
87	C	0.041701	0.516598	0.488849
88	C	0.046123	0.517032	0.298185
89	C	0.090574	0.533752	0.209931
90	C	0.122288	0.521179	0.267645
91	S	0.171627	0.546794	0.133608
92	C	0.150908	0.574433	0
93	C	0.107567	0.565006	0.052728
94	C	0.005459	0.499792	0.177231
95	C	0.962283	0.485874	0.237529
96	C	0.92345	0.469292	0.10986
97	C	0.925501	0.48717	0.92976
98	S	0.873813	0.459862	0.812214
99	C	0.848623	0.424625	0
100	C	0.87809	0.432623	0.149939
101	C	0.955386	0.488003	0.448176
102	O	0.918914	0.480952	0.51817
103	H	0.070446	0.528458	0.586853
104	H	0.119295	0.498035	0.380877
105	H	0.089135	0.5799	0.98354
106	H	0.011448	0.497589	0.025504
107	H	0.954476	0.515145	0.859292
108	H	0.867674	0.413366	0.282112
