data_C60H24N18O12_2023-05-12_11:51:33
#******************************************
#
# CIF file created by Zeo++
# Zeo++ is an open source package to
# analyze microporous materials
#
#*******************************************

_cell_length_a		34.738   
_cell_length_b		35.0367   
_cell_length_c		7   
_cell_angle_alpha		90   
_cell_angle_beta		90   
_cell_angle_gamma		119.628   

_symmetry_space_group_name_H-M		'P1'
_symmetry_Int_Tables_number		1
_symmetry_cell_setting		Monoclinic

loop_
_symmetry_equiv_pos_as_xyz
'+x,+y,+z'

loop_
_atom_site_label
_atom_site_type_symbol
_atom_site_fract_x
_atom_site_fract_y
_atom_site_fract_z
1	C	0.377928	0.675958	0.999995
2	O	0.417029	0.68279	0.999991
3	C	0.342681	0.630301	0.999998
4	C	0.349631	0.596648	0
5	N	0.3934	0.604518	0
6	C	0.297463	0.622197	3e-06
7	O	0.265781	0.582846	5e-06
8	C	0.286507	0.65731	6e-06
9	C	0.244898	0.648837	5e-06
10	N	0.210602	0.604064	0
11	C	0.323457	0.702602	4e-06
12	O	0.314745	0.732966	7e-06
13	C	0.369398	0.712741	0.999999
14	C	0.401968	0.75406	0.999998
15	N	0.39531	0.790738	0
16	H	0.322643	0.563887	1e-06
17	H	0.236054	0.673987	8e-06
18	H	0.434999	0.75996	0.999997
19	C	0.622072	0.324042	0.999995
20	O	0.582971	0.31721	0.999991
21	C	0.657319	0.369699	0.999998
22	C	0.650369	0.403352	0
23	N	0.6066	0.395482	0
24	C	0.702537	0.377803	3e-06
25	O	0.734219	0.417154	5e-06
26	C	0.713493	0.34269	6e-06
27	C	0.755102	0.351163	5e-06
28	N	0.789398	0.395936	0
29	C	0.676543	0.297398	4e-06
30	O	0.685255	0.267034	7e-06
31	C	0.630602	0.287259	0.999999
32	C	0.598032	0.24594	0.999998
33	N	0.60469	0.209262	0
34	H	0.677357	0.436113	1e-06
35	H	0.763946	0.326013	8e-06
36	H	0.565001	0.24004	0.999997
37	O	0.50354	0.496529	0.810779
38	C	0.500753	0.496564	0.636653
39	C	0.520718	0.476073	0.51845
40	C	0.518727	0.476949	0.327175
41	C	0.540365	0.456997	0.214085
42	N	0.564815	0.480831	0.062743
43	C	0.584368	0.462461	0.957803
44	C	0.579809	0.42175	0
45	N	0.555234	0.39757	0.149476
46	C	0.535666	0.415894	0.254083
47	C	0.49781	0.499281	0.23439
48	C	0.477901	0.518894	0.324047
49	C	0.457351	0.540065	0.213143
50	N	0.444495	0.524973	0.031906
51	C	0.425868	0.5445	0.928605
52	C	0.420191	0.57825	0
53	N	0.433009	0.593853	0.178589
54	C	0.451363	0.574108	0.282631
55	C	0.47669	0.517332	0.536595
56	O	0.457097	0.531693	0.631564
57	H	0.537108	0.461548	0.597482
58	H	0.603976	0.481886	0.83761
59	H	0.515531	0.395846	0.371996
60	H	0.499277	0.499657	0.078494
61	H	0.415703	0.531885	0.784997
62	H	0.461558	0.587574	0.425177
63	O	0.503	0.006715	0.810779
64	C	0.502985	0.003928	0.636653
65	C	0.523426	0.043987	0.51845
66	C	0.522561	0.041151	0.327175
67	C	0.542448	0.082327	0.214085
68	N	0.518316	0.082823	0.062743
69	C	0.536628	0.120369	0.957803
70	C	0.577571	0.156274	0
71	N	0.602052	0.155997	0.149476
72	C	0.583786	0.118482	0.254083
73	C	0.500277	0.998324	0.23439
74	C	0.480718	0.959191	0.324047
75	C	0.459598	0.91788	0.213143
76	N	0.474859	0.920159	0.031906
77	C	0.455376	0.882379	0.928605
78	C	0.421505	0.843273	0
79	N	0.40573	0.840448	0.178589
80	C	0.425434	0.878176	0.282631
81	C	0.482296	0.959545	0.536595
82	O	0.468012	0.925938	0.631564
83	H	0.537899	0.074594	0.597482
84	H	0.516963	0.120459	0.83761
85	H	0.604081	0.11849	0.371996
86	H	0.499888	0.999399	0.078494
87	H	0.468129	0.884859	0.784997
88	H	0.411826	0.874881	0.425177
89	O	0.992772	0.496075	0.810779
90	C	0.995573	0.498827	0.636653
91	C	0.955167	0.479259	0.51845
92	C	0.958024	0.48122	0.327175
93	C	0.9165	0.459996	0.214085
94	N	0.916181	0.435666	0.062743
95	C	0.878316	0.416489	0.957803
96	C	0.841931	0.421296	0
97	N	0.842027	0.445752	0.149476
98	C	0.87986	0.464944	0.254083
99	C	0.001225	0.501714	0.23439
100	C	0.040693	0.521234	0.324047
101	C	0.082363	0.541375	0.213143
102	N	0.079958	0.554187	0.031906
103	C	0.118068	0.572441	0.928605
104	C	0.157616	0.577796	0
105	N	0.160573	0.565018	0.178589
106	C	0.122515	0.547035	0.282631
107	C	0.040326	0.522442	0.536595
108	O	0.074203	0.541689	0.631564
109	H	0.924304	0.463178	0.597482
110	H	0.878373	0.396975	0.83761
111	H	0.879701	0.484983	0.371996
112	H	0.000147	0.500263	0.078494
113	H	0.115481	0.582576	0.784997
114	H	0.125928	0.536864	0.425177
