data_C84H36N6O12S12_2023-05-14_05:57:51
#******************************************
#
# CIF file created by Zeo++
# Zeo++ is an open source package to
# analyze microporous materials
#
#*******************************************

_cell_length_a		45.3231   
_cell_length_b		45.6216   
_cell_length_c		7   
_cell_angle_alpha		90   
_cell_angle_beta		90   
_cell_angle_gamma		119.714   

_symmetry_space_group_name_H-M		'P1'
_symmetry_Int_Tables_number		1
_symmetry_cell_setting		Monoclinic

loop_
_symmetry_equiv_pos_as_xyz
'+x,+y,+z'

loop_
_atom_site_label
_atom_site_type_symbol
_atom_site_fract_x
_atom_site_fract_y
_atom_site_fract_z
1	C	0.367526	0.673808	0.999995
2	O	0.397504	0.67906	0.999991
3	C	0.340449	0.638714	0.999998
4	C	0.345731	0.612847	0
5	N	0.379288	0.618896	0
6	C	0.305781	0.632485	3e-06
7	O	0.281445	0.602238	5e-06
8	C	0.297431	0.659475	6e-06
9	C	0.265528	0.652962	5e-06
10	N	0.239182	0.618547	0
11	C	0.325812	0.694288	4e-06
12	O	0.319175	0.717627	7e-06
13	C	0.361038	0.702081	0.999999
14	C	0.386056	0.733841	0.999998
15	N	0.381003	0.762033	0
16	H	0.325002	0.587665	1e-06
17	H	0.258783	0.672293	8e-06
18	H	0.411381	0.738376	0.999997
19	C	0.632474	0.326192	0.999995
20	O	0.602496	0.32094	0.999991
21	C	0.659551	0.361286	0.999998
22	C	0.654269	0.387153	0
23	N	0.620712	0.381104	0
24	C	0.694219	0.367515	3e-06
25	O	0.718555	0.397762	5e-06
26	C	0.702569	0.340525	6e-06
27	C	0.734472	0.347038	5e-06
28	N	0.760818	0.381453	0
29	C	0.674188	0.305712	4e-06
30	O	0.680825	0.282373	7e-06
31	C	0.638962	0.297919	0.999999
32	C	0.613944	0.266159	0.999998
33	N	0.618997	0.237967	0
34	H	0.674998	0.412335	1e-06
35	H	0.741217	0.327707	8e-06
36	H	0.588619	0.261624	0.999997
37	O	0.505906	0.494183	0.012823
38	C	0.500327	0.492427	0.841103
39	C	0.49116	0.51595	0.749256
40	C	0.487235	0.515942	0.558998
41	C	0.478065	0.539648	0.483609
42	C	0.492105	0.573801	0.51994
43	C	0.475756	0.58884	0.417838
44	C	0.4493	0.566119	0.304237
45	C	0.427245	0.572457	0.181704
46	C	0.399511	0.549375	0.075738
47	C	0.383582	0.564568	0.970412
48	C	0.399787	0.598706	0
49	S	0.43327	0.61257	0.15009
50	S	0.444954	0.526643	0.324451
51	C	0.492809	0.492983	0.439445
52	C	0.499988	0.469631	0.506297
53	C	0.504933	0.448507	0.3759
54	C	0.481837	0.423919	0.254754
55	C	0.496643	0.408315	0.14368
56	C	0.530895	0.421272	0.180122
57	C	0.553226	0.411065	0.090154
58	C	0.546242	0.391027	0.928653
59	C	0.573478	0.385378	0.87617
60	C	0.600213	0.401294	0
61	S	0.593215	0.422576	0.175317
62	S	0.544409	0.452453	0.350091
63	C	0.502256	0.466057	0.71636
64	O	0.504987	0.443154	0.789284
65	H	0.487699	0.53253	0.846356
66	H	0.513435	0.587738	0.615373
67	H	0.483418	0.615366	0.429058
68	H	0.390655	0.52253	0.072663
69	H	0.361601	0.550939	0.879195
70	H	0.491392	0.495892	0.285693
71	H	0.455295	0.417054	0.246838
72	H	0.482383	0.388247	0.042289
73	H	0.522644	0.380777	0.849581
74	H	0.573108	0.370497	0.754719
75	O	0.505452	0.011461	0.012823
76	C	0.507246	0.007679	0.841103
77	C	0.483688	0.97521	0.749256
78	C	0.483719	0.97133	0.558998
79	C	0.459978	0.938677	0.483609
80	C	0.425617	0.918628	0.51994
81	C	0.410616	0.88748	0.417838
82	C	0.433573	0.883862	0.304237
83	C	0.427339	0.855713	0.181704
84	C	0.450666	0.851188	0.075738
85	C	0.435508	0.820303	0.970412
86	C	0.40115	0.802414	0
87	S	0.387042	0.821798	0.15009
88	S	0.473221	0.918807	0.324451
89	C	0.506731	0.999679	0.439445
90	C	0.530128	0.030008	0.506297
91	C	0.551302	0.055909	0.3759
92	C	0.576114	0.057477	0.254754
93	C	0.59169	0.087658	0.14368
94	C	0.578489	0.108706	0.180122
95	C	0.588606	0.140976	0.090154
96	C	0.608758	0.15398	0.928653
97	C	0.614271	0.186578	0.87617
98	C	0.598143	0.197237	0
99	S	0.576822	0.169145	0.175317
100	S	0.547114	0.091092	0.350091
101	C	0.533702	0.035809	0.71636
102	O	0.556674	0.061285	0.789284
103	H	0.467067	0.955297	0.846356
104	H	0.411506	0.925901	0.615373
105	H	0.383948	0.868696	0.429058
106	H	0.477661	0.869106	0.072663
107	H	0.449313	0.812079	0.879195
108	H	0.503819	0.995383	0.285693
109	H	0.583157	0.038011	0.246838
110	H	0.611915	0.093485	0.042289
111	H	0.619181	0.140796	0.849581
112	H	0.62921	0.201007	0.754719
113	O	0.988115	0.493834	0.012823
114	C	0.9919	0.499371	0.841103
115	C	0.024625	0.508316	0.749256
116	C	0.028519	0.512205	0.558998
117	C	0.06143	0.521152	0.483609
118	C	0.08175	0.507048	0.51994
119	C	0.1131	0.523157	0.417838
120	C	0.116599	0.549496	0.304237
121	C	0.144889	0.571307	0.181704
122	C	0.149296	0.598914	0.075738
123	C	0.180383	0.614606	0.970412
124	C	0.198535	0.598357	0
125	S	0.17916	0.565109	0.15009
126	S	0.081297	0.554027	0.324451
127	C	0.999933	0.506815	0.439445
128	C	0.969357	0.499838	0.506297
129	C	0.943238	0.49506	0.3759
130	C	0.941522	0.518081	0.254754
131	C	0.91114	0.503504	0.14368
132	C	0.890089	0.469499	0.180122
133	C	0.857641	0.447436	0.090154
134	C	0.844473	0.454469	0.928653
135	C	0.811723	0.427521	0.87617
136	C	0.801117	0.400945	0
137	S	0.829436	0.407756	0.175317
138	S	0.907949	0.455932	0.350091
139	C	0.963514	0.497611	0.71636
140	O	0.937812	0.495038	0.789284
141	H	0.044707	0.51165	0.846356
142	H	0.074531	0.485838	0.615373
143	H	0.132106	0.515415	0.429058
144	H	0.131156	0.607841	0.072663
145	H	0.188558	0.636459	0.879195
146	H	0.004261	0.508202	0.285693
147	H	0.96102	0.544413	0.246838
148	H	0.905174	0.517745	0.042289
149	H	0.857647	0.477904	0.849581
150	H	0.797155	0.427973	0.754719
