data_C114H42N6O18S12_2023-05-15_14:02:55
#******************************************
#
# CIF file created by Zeo++
# Zeo++ is an open source package to
# analyze microporous materials
#
#*******************************************

_cell_length_a		53.1833   
_cell_length_b		53.4818   
_cell_length_c		7   
_cell_angle_alpha		90   
_cell_angle_beta		90   
_cell_angle_gamma		119.756   

_symmetry_space_group_name_H-M		'P1'
_symmetry_Int_Tables_number		1
_symmetry_cell_setting		Monoclinic

loop_
_symmetry_equiv_pos_as_xyz
'+x,+y,+z'

loop_
_atom_site_label
_atom_site_type_symbol
_atom_site_fract_x
_atom_site_fract_y
_atom_site_fract_z
1	C	0.362478	0.672761	0.999995
2	O	0.388029	0.677243	0.999991
3	C	0.339377	0.642813	0.999998
4	C	0.34386	0.620738	0
5	N	0.372462	0.6259	0
6	C	0.309828	0.637497	3e-06
7	O	0.289068	0.611684	5e-06
8	C	0.302732	0.660529	6e-06
9	C	0.27554	0.654971	5e-06
10	N	0.253062	0.625602	0
11	C	0.326944	0.690238	4e-06
12	O	0.321305	0.710156	7e-06
13	C	0.356969	0.696889	0.999999
14	C	0.378313	0.723992	0.999998
15	N	0.374027	0.748052	0
16	H	0.326176	0.599248	1e-06
17	H	0.269806	0.671468	8e-06
18	H	0.399898	0.727863	0.999997
19	C	0.637522	0.327239	0.999995
20	O	0.611971	0.322757	0.999991
21	C	0.660623	0.357187	0.999998
22	C	0.65614	0.379262	0
23	N	0.627538	0.3741	0
24	C	0.690172	0.362503	3e-06
25	O	0.710932	0.388316	5e-06
26	C	0.697268	0.339471	6e-06
27	C	0.72446	0.345029	5e-06
28	N	0.746938	0.374398	0
29	C	0.673056	0.309762	4e-06
30	O	0.678695	0.289844	7e-06
31	C	0.643031	0.303111	0.999999
32	C	0.621687	0.276008	0.999998
33	N	0.625973	0.251948	0
34	H	0.673824	0.400752	1e-06
35	H	0.730194	0.328532	8e-06
36	H	0.600102	0.272137	0.999997
37	O	0.452139	0.413072	0.037388
38	C	0.462809	0.43301	0.150799
39	C	0.488311	0.438207	0.274679
40	O	0.489762	0.417716	0.33811
41	C	0.509319	0.46854	0.323545
42	C	0.538354	0.477338	0.370993
43	C	0.550863	0.458423	0.359893
44	C	0.55754	0.445425	0.505802
45	C	0.570003	0.428907	0.436542
46	C	0.572718	0.429759	0.23961
47	C	0.584308	0.415632	0.121495
48	C	0.579923	0.409496	0.927819
49	C	0.594862	0.395383	0.857224
50	C	0.610084	0.39133	0
51	S	0.606724	0.403964	0.214259
52	S	0.560231	0.451066	0.141967
53	C	0.556769	0.506023	0.42585
54	C	0.546697	0.525567	0.432285
55	C	0.51797	0.516553	0.383273
56	C	0.498758	0.488146	0.326113
57	C	0.468975	0.47966	0.264983
58	C	0.457269	0.498123	0.288404
59	C	0.475153	0.525349	0.394163
60	O	0.464913	0.537114	0.490571
61	C	0.507646	0.537505	0.390836
62	O	0.524325	0.563423	0.394992
63	C	0.429445	0.49053	0.218859
64	C	0.416986	0.509492	0.229193
65	C	0.395869	0.508066	0.350014
66	C	0.389218	0.530383	0.312914
67	C	0.405255	0.548255	0.164125
68	C	0.404225	0.57292	0.088261
69	C	0.424974	0.595373	0.979457
70	C	0.416689	0.616127	0.928223
71	C	0.389916	0.60867	0
72	S	0.374823	0.577635	0.126274
73	S	0.42808	0.537276	0.070237
74	C	0.412975	0.463783	0.128606
75	C	0.423896	0.445088	0.106724
76	C	0.451568	0.45305	0.174982
77	H	0.553427	0.447259	0.655249
78	H	0.576368	0.416742	0.52887
79	H	0.566411	0.414654	0.839177
80	H	0.594217	0.388709	0.710415
81	H	0.57931	0.513372	0.462192
82	H	0.561305	0.547786	0.474804
83	H	0.385815	0.492084	0.46164
84	H	0.373451	0.533154	0.394434
85	H	0.445451	0.597153	0.938481
86	H	0.429827	0.635256	0.84408
87	H	0.3915	0.457499	0.072841
88	H	0.410844	0.424417	0.035918
89	O	0.587136	0.038876	0.037388
90	C	0.567083	0.02962	0.150799
91	C	0.561744	0.049746	0.274679
92	O	0.582292	0.071576	0.33811
93	C	0.531212	0.040401	0.323545
94	C	0.522245	0.06045	0.370993
95	C	0.541158	0.091681	0.359893
96	C	0.554164	0.111239	0.505802
97	C	0.570674	0.140039	0.436542
98	C	0.569805	0.141884	0.23961
99	C	0.58392	0.167439	0.121495
100	C	0.590097	0.169195	0.927819
101	C	0.604181	0.198058	0.857224
102	C	0.608172	0.217191	0
103	S	0.595515	0.201286	0.214259
104	S	0.548492	0.108294	0.141967
105	C	0.493378	0.050171	0.42585
106	C	0.473822	0.020733	0.432285
107	C	0.483005	0.001205	0.383273
108	C	0.511596	0.010415	0.326113
109	C	0.520255	0.989316	0.264983
110	C	0.501792	0.959331	0.288404
111	C	0.474392	0.949978	0.394163
112	O	0.46264	0.928114	0.490571
113	C	0.462038	0.970115	0.390836
114	O	0.435956	0.960869	0.394992
115	C	0.509545	0.939285	0.218859
116	C	0.490584	0.908056	0.229193
117	C	0.492118	0.888527	0.350014
118	C	0.469763	0.859723	0.312914
119	C	0.451756	0.857846	0.164125
120	C	0.427018	0.83228	0.088261
121	C	0.404392	0.83052	0.979457
122	C	0.383614	0.80165	0.928223
123	C	0.391226	0.782512	0
124	S	0.422432	0.798422	0.126274
125	S	0.462657	0.891414	0.070237
126	C	0.536456	0.949562	0.128606
127	C	0.555158	0.979	0.106724
128	C	0.547035	0.998527	0.174982
129	H	0.552344	0.105333	0.655249
130	H	0.582845	0.158458	0.52887
131	H	0.584989	0.150658	0.839177
132	H	0.610879	0.204059	0.710415
133	H	0.485896	0.065219	0.462192
134	H	0.451461	0.013113	0.474804
135	H	0.508199	0.894457	0.46164
136	H	0.467061	0.841324	0.394434
137	H	0.402507	0.849063	0.938481
138	H	0.36436	0.795647	0.84408
139	H	0.542866	0.934513	0.072841
140	H	0.575957	0.986621	0.035918
141	O	0.960275	0.547606	0.037388
142	C	0.969658	0.536923	0.150799
143	C	0.949495	0.511601	0.274679
144	O	0.927495	0.510261	0.33811
145	C	0.959019	0.490612	0.323545
146	C	0.938951	0.461766	0.370993
147	C	0.907529	0.44945	0.359893
148	C	0.887846	0.44289	0.505802
149	C	0.858874	0.430608	0.436542
150	C	0.857027	0.42791	0.23961
151	C	0.831322	0.416482	0.121495
152	C	0.82953	0.420862	0.927819
153	C	0.800507	0.406113	0.857224
154	C	0.781295	0.391033	0
155	S	0.797311	0.394303	0.214259
156	S	0.890827	0.440193	0.141967
157	C	0.949403	0.443359	0.42585
158	C	0.979031	0.453253	0.432285
159	C	0.998575	0.481795	0.383273
160	C	0.989196	0.500992	0.326113
161	C	0.01032	0.530578	0.264983
162	C	0.04049	0.5421	0.288404
163	C	0.050006	0.524226	0.394163
164	O	0.071997	0.534326	0.490571
165	C	0.029867	0.491934	0.390836
166	O	0.039269	0.475262	0.394992
167	C	0.060561	0.569739	0.218859
168	C	0.091981	0.582005	0.229193
169	C	0.111564	0.60296	0.350014
170	C	0.140569	0.609448	0.312914
171	C	0.14254	0.593452	0.164125
172	C	0.168308	0.594353	0.088261
173	C	0.170184	0.57366	0.979457
174	C	0.199248	0.581777	0.928223
175	C	0.218408	0.608372	0
176	S	0.202295	0.623497	0.126274
177	S	0.108813	0.570863	0.070237
178	C	0.050119	0.586208	0.128606
179	C	0.020497	0.575466	0.106724
180	C	0.000948	0.547977	0.174982
181	H	0.893779	0.446961	0.655249
182	H	0.840337	0.424354	0.52887
183	H	0.848151	0.434242	0.839177
184	H	0.794454	0.406785	0.710415
185	H	0.934345	0.420962	0.462192
186	H	0.986784	0.438654	0.474804
187	H	0.105536	0.613012	0.46164
188	H	0.159039	0.625076	0.394434
189	H	0.151592	0.553338	0.938481
190	H	0.205363	0.56865	0.84408
191	H	0.065184	0.607542	0.072841
192	H	0.01275	0.588515	0.035918
