data_C66H30N24O12_2023-05-10_23:37:46
#******************************************
#
# CIF file created by Zeo++
# Zeo++ is an open source package to
# analyze microporous materials
#
#*******************************************

_cell_length_a		37.2855   
_cell_length_b		37.5841   
_cell_length_c		7   
_cell_angle_alpha		90   
_cell_angle_beta		90   
_cell_angle_gamma		119.653   

_symmetry_space_group_name_H-M		'P1'
_symmetry_Int_Tables_number		1
_symmetry_cell_setting		Monoclinic

loop_
_symmetry_equiv_pos_as_xyz
'+x,+y,+z'

loop_
_atom_site_label
_atom_site_type_symbol
_atom_site_fract_x
_atom_site_fract_y
_atom_site_fract_z
1	C	0.374886	0.67533	0.999995
2	O	0.411318	0.681701	0.999991
3	C	0.342025	0.632757	0.999998
4	C	0.348484	0.601377	0
5	N	0.389266	0.608716	0
6	C	0.299892	0.625201	3e-06
7	O	0.270357	0.588507	5e-06
8	C	0.289702	0.657942	6e-06
9	C	0.250932	0.650041	5e-06
10	N	0.218958	0.608292	0
11	C	0.324149	0.700175	4e-06
12	O	0.316046	0.728488	7e-06
13	C	0.366956	0.709629	0.999999
14	C	0.39732	0.748157	0.999998
15	N	0.391135	0.782358	0
16	H	0.323325	0.570829	1e-06
17	H	0.242704	0.673492	8e-06
18	H	0.428097	0.753658	0.999997
19	C	0.625114	0.32467	0.999995
20	O	0.588682	0.318299	0.999991
21	C	0.657975	0.367243	0.999998
22	C	0.651516	0.398623	0
23	N	0.610734	0.391284	0
24	C	0.700108	0.374799	3e-06
25	O	0.729643	0.411493	5e-06
26	C	0.710298	0.342058	6e-06
27	C	0.749068	0.349959	5e-06
28	N	0.781042	0.391708	0
29	C	0.675851	0.299825	4e-06
30	O	0.683954	0.271512	7e-06
31	C	0.633044	0.290371	0.999999
32	C	0.60268	0.251843	0.999998
33	N	0.608865	0.217642	0
34	H	0.676675	0.429171	1e-06
35	H	0.757296	0.326508	8e-06
36	H	0.571903	0.246342	0.999997
37	O	0.512702	0.558701	0.754372
38	C	0.515395	0.540009	0.617306
39	C	0.491396	0.534809	0.441795
40	C	0.489039	0.508815	0.303918
41	C	0.464459	0.504726	0.128456
42	N	0.449692	0.530306	0.105406
43	C	0.42846	0.525247	0.945482
44	C	0.410769	0.55167	0.905673
45	C	0.414214	0.584222	0
46	N	0.421185	0.497002	0.812914
47	C	0.437372	0.473267	0.850668
48	N	0.459132	0.4755	0.004827
49	C	0.509398	0.484507	0.332649
50	C	0.534866	0.48904	0.478486
51	C	0.554073	0.463264	0.495323
52	N	0.563383	0.450895	0.33344
53	C	0.580051	0.427035	0.355017
54	C	0.591802	0.412153	0.18603
55	C	0.585786	0.415778	0
56	N	0.587465	0.415066	0.522436
57	C	0.576343	0.428704	0.67372
58	N	0.559043	0.452218	0.669548
59	C	0.54379	0.521699	0.620251
60	O	0.572889	0.535032	0.731381
61	H	0.476095	0.552921	0.435272
62	H	0.392024	0.54262	0.776684
63	H	0.398465	0.599929	0.946196
64	H	0.432361	0.449935	0.74615
65	H	0.502774	0.460954	0.225517
66	H	0.607825	0.39551	0.222668
67	H	0.596986	0.402447	0.894483
68	H	0.581763	0.419728	0.813321
69	O	0.440516	0.954054	0.754372
70	C	0.459273	0.975278	0.617306
71	C	0.464664	0.956716	0.441795
72	C	0.490791	0.980198	0.303918
73	C	0.495071	0.95996	0.128456
74	N	0.469477	0.919958	0.105406
75	C	0.474708	0.903993	0.945482
76	C	0.448288	0.860263	0.905673
77	C	0.415565	0.831344	0
78	N	0.503131	0.924848	0.812914
79	C	0.52686	0.964421	0.850668
80	N	0.524465	0.983715	0.004827
81	C	0.515067	0.024465	0.332649
82	C	0.510337	0.045142	0.478486
83	C	0.536095	0.089726	0.495323
84	N	0.548455	0.111212	0.33344
85	C	0.572306	0.151384	0.355017
86	C	0.587174	0.17778	0.18603
87	C	0.583575	0.168233	0
88	N	0.584278	0.1706	0.522436
89	C	0.570656	0.146062	0.67372
90	N	0.547156	0.105609	0.669548
91	C	0.477467	0.021532	0.620251
92	O	0.463872	0.037061	0.731381
93	H	0.446577	0.923604	0.435272
94	H	0.45751	0.850719	0.776684
95	H	0.399898	0.800177	0.946196
96	H	0.550333	0.982636	0.74615
97	H	0.538773	0.041305	0.225517
98	H	0.603781	0.210149	0.222668
99	H	0.596887	0.192544	0.894483
100	H	0.579635	0.160334	0.813321
101	O	0.046142	0.48661	0.754372
102	C	0.024691	0.484078	0.617306
103	C	0.043299	0.50784	0.441795
104	C	0.019529	0.510352	0.303918
105	C	0.039829	0.53468	0.128456
106	N	0.080189	0.549101	0.105406
107	C	0.096191	0.570126	0.945482
108	C	0.140302	0.587432	0.905673
109	C	0.16958	0.583799	0
110	N	0.075043	0.577515	0.812914
111	C	0.035127	0.561678	0.850668
112	N	0.015762	0.540151	0.004827
113	C	0.974894	0.490394	0.332649
114	C	0.954156	0.465183	0.478486
115	C	0.909191	0.446376	0.495323
116	N	0.887522	0.437258	0.33344
117	C	0.847002	0.420946	0.355017
118	C	0.820383	0.409432	0.18603
119	C	0.829998	0.415354	0
120	N	0.827616	0.413699	0.522436
121	C	0.85236	0.4246	0.67372
122	N	0.89316	0.441539	0.669548
123	C	0.978102	0.456134	0.620251
124	O	0.962598	0.427273	0.731381
125	H	0.076687	0.522841	0.435272
126	H	0.149825	0.606026	0.776684
127	H	0.200997	0.59926	0.946196
128	H	0.016665	0.566795	0.74615
129	H	0.957813	0.497107	0.225517
130	H	0.787753	0.393707	0.222668
131	H	0.805486	0.404374	0.894483
132	H	0.837961	0.419304	0.813321
