data_C84H36N6O12S12_2023-05-13_05:03:40
#******************************************
#
# CIF file created by Zeo++
# Zeo++ is an open source package to
# analyze microporous materials
#
#*******************************************

_cell_length_a		44.1978   
_cell_length_b		44.4964   
_cell_length_c		7   
_cell_angle_alpha		90   
_cell_angle_beta		90   
_cell_angle_gamma		119.707   

_symmetry_space_group_name_H-M		'P1'
_symmetry_Int_Tables_number		1
_symmetry_cell_setting		Monoclinic

loop_
_symmetry_equiv_pos_as_xyz
'+x,+y,+z'

loop_
_atom_site_label
_atom_site_type_symbol
_atom_site_fract_x
_atom_site_fract_y
_atom_site_fract_z
1	C	0.368395	0.673988	0.999995
2	O	0.399136	0.679372	0.999991
3	C	0.340635	0.63801	0.999998
4	C	0.346055	0.61149	0
5	N	0.380465	0.617692	0
6	C	0.305084	0.631624	3e-06
7	O	0.280134	0.600614	5e-06
8	C	0.296518	0.659293	6e-06
9	C	0.263804	0.652616	5e-06
10	N	0.236792	0.617334	0
11	C	0.325616	0.694985	4e-06
12	O	0.318807	0.718912	7e-06
13	C	0.361738	0.702974	0.999999
14	C	0.387388	0.735535	0.999998
15	N	0.382202	0.764438	0
16	H	0.324802	0.585673	1e-06
17	H	0.256885	0.672435	8e-06
18	H	0.413357	0.740184	0.999997
19	C	0.631605	0.326012	0.999995
20	O	0.600864	0.320628	0.999991
21	C	0.659365	0.36199	0.999998
22	C	0.653945	0.38851	0
23	N	0.619535	0.382308	0
24	C	0.694916	0.368376	3e-06
25	O	0.719866	0.399386	5e-06
26	C	0.703482	0.340707	6e-06
27	C	0.736196	0.347384	5e-06
28	N	0.763208	0.382666	0
29	C	0.674384	0.305015	4e-06
30	O	0.681193	0.281088	7e-06
31	C	0.638262	0.297026	0.999999
32	C	0.612612	0.264465	0.999998
33	N	0.617798	0.235562	0
34	H	0.675198	0.414327	1e-06
35	H	0.743115	0.327565	8e-06
36	H	0.586643	0.259816	0.999997
37	O	0.4976	0.502363	0.090097
38	C	0.498539	0.49905	0.917143
39	C	0.524314	0.491089	0.832089
40	C	0.527988	0.49079	0.641702
41	C	0.553639	0.482546	0.572349
42	C	0.587781	0.495109	0.630014
43	C	0.605064	0.480386	0.52643
44	C	0.584062	0.456744	0.390121
45	C	0.593685	0.437207	0.262611
46	C	0.621142	0.430788	0.286234
47	C	0.623919	0.410892	0.134134
48	C	0.598511	0.403008	0
49	S	0.571806	0.418882	0.05312
50	S	0.54341	0.452725	0.39196
51	C	0.506933	0.499259	0.516376
52	C	0.481408	0.505136	0.575612
53	C	0.462384	0.513015	0.439177
54	C	0.444431	0.494628	0.278946
55	C	0.428979	0.511169	0.175108
56	C	0.43539	0.542106	0.256351
57	C	0.423862	0.56565	0.190389
58	C	0.423264	0.592233	0.290846
59	C	0.410288	0.610421	0.180521
60	C	0.401489	0.596992	0
61	S	0.408419	0.56338	0.961593
62	S	0.460497	0.550569	0.457851
63	C	0.473338	0.502712	0.783635
64	O	0.447797	0.503035	0.848386
65	H	0.539353	0.485466	0.933771
66	H	0.60017	0.514333	0.741427
67	H	0.631939	0.487283	0.551227
68	H	0.638567	0.439703	0.407951
69	H	0.643474	0.403025	0.125642
70	H	0.513313	0.501237	0.364787
71	H	0.442093	0.470078	0.237763
72	H	0.413636	0.500384	0.0468
73	H	0.431582	0.598519	0.438159
74	H	0.407688	0.631946	0.232645
75	O	0.49728	0.995095	0.090097
76	C	0.5006	0.999318	0.917143
77	C	0.508439	0.03276	0.832089
78	C	0.508717	0.036696	0.641702
79	C	0.516842	0.070295	0.572349
80	C	0.504031	0.091621	0.630014
81	C	0.518707	0.123374	0.52643
82	C	0.542562	0.126076	0.390121
83	C	0.562117	0.155028	0.262611
84	C	0.5684	0.188602	0.286234
85	C	0.588354	0.211131	0.134134
86	C	0.596418	0.193806	0
87	S	0.580642	0.151578	0.05312
88	S	0.546836	0.08981	0.39196
89	C	0.500341	0.007424	0.516376
90	C	0.494591	0.976303	0.575612
91	C	0.486795	0.94963	0.439177
92	C	0.505357	0.950127	0.278946
93	C	0.488844	0.91838	0.175108
94	C	0.457752	0.893975	0.256351
95	C	0.434186	0.859152	0.190389
96	C	0.407506	0.832134	0.290846
97	C	0.389325	0.801201	0.180521
98	C	0.402856	0.805837	0
99	S	0.436556	0.846115	0.961593
100	S	0.449109	0.910427	0.457851
101	C	0.497072	0.97072	0.783635
102	O	0.496899	0.945104	0.848386
103	H	0.513995	0.053244	0.933771
104	H	0.48466	0.084779	0.741427
105	H	0.511626	0.143133	0.551227
106	H	0.559348	0.196997	0.407951
107	H	0.596137	0.238319	0.125642
108	H	0.498317	0.011776	0.364787
109	H	0.530014	0.972218	0.237763
110	H	0.49976	0.913906	0.0468
111	H	0.401147	0.834123	0.438159
112	H	0.367733	0.777229	0.232645
113	O	0.004579	0.502005	0.090097
114	C	0.000321	0.501095	0.917143
115	C	0.966706	0.475614	0.832089
116	C	0.962753	0.471977	0.641702
117	C	0.928978	0.446622	0.572349
118	C	0.907647	0.412735	0.630014
119	C	0.875687	0.395704	0.52643
120	C	0.872835	0.416644	0.390121
121	C	0.843657	0.407228	0.262611
122	C	0.809918	0.380074	0.286234
123	C	0.787185	0.37744	0.134134
124	C	0.80453	0.40265	0
125	S	0.847011	0.429004	0.05312
126	S	0.909213	0.456929	0.39196
127	C	0.992186	0.492781	0.516376
128	C	0.023459	0.518025	0.575612
129	C	0.05028	0.53682	0.439177
130	C	0.049671	0.554708	0.278946
131	C	0.081636	0.569914	0.175108
132	C	0.106317	0.563383	0.256351
133	C	0.141412	0.574661	0.190389
134	C	0.168689	0.575097	0.290846
135	C	0.199847	0.587841	0.180521
136	C	0.195114	0.596634	0
137	S	0.154484	0.589968	0.961593
138	S	0.089854	0.538468	0.457851
139	C	0.029049	0.526032	0.783635
140	O	0.054763	0.551325	0.848386
141	H	0.946111	0.460753	0.933771
142	H	0.914629	0.400352	0.741427
143	H	0.855895	0.369048	0.551227
144	H	0.801545	0.362764	0.407951
145	H	0.759848	0.35812	0.125642
146	H	0.98783	0.486451	0.364787
147	H	0.027351	0.557168	0.237763
148	H	0.086063	0.585173	0.0468
149	H	0.16673	0.566822	0.438159
150	H	0.224038	0.590289	0.232645
