data_C60H24N6O12S6_2023-05-30_13:02:33
#******************************************
#
# CIF file created by Zeo++
# Zeo++ is an open source package to
# analyze microporous materials
#
#*******************************************

_cell_length_a		33.1207   
_cell_length_b		33.4193   
_cell_length_c		7   
_cell_angle_alpha		90   
_cell_angle_beta		90   
_cell_angle_gamma		119.61   

_symmetry_space_group_name_H-M		'P1'
_symmetry_Int_Tables_number		1
_symmetry_cell_setting		Monoclinic

loop_
_symmetry_equiv_pos_as_xyz
'+x,+y,+z'

loop_
_atom_site_label
_atom_site_type_symbol
_atom_site_fract_x
_atom_site_fract_y
_atom_site_fract_z
1	C	0.380102	0.676406	0.999995
2	O	0.42111	0.683567	0.999991
3	C	0.343151	0.628548	0.999998
4	C	0.350454	0.593273	0
5	N	0.396357	0.601522	0
6	C	0.295728	0.620054	3e-06
7	O	0.262515	0.578805	5e-06
8	C	0.284224	0.656859	6e-06
9	C	0.240586	0.647977	5e-06
10	N	0.204633	0.601046	0
11	C	0.322961	0.704334	4e-06
12	O	0.313811	0.736162	7e-06
13	C	0.371142	0.714962	0.999999
14	C	0.405286	0.758273	0.999998
15	N	0.398289	0.796719	0
16	H	0.32216	0.558932	1e-06
17	H	0.231301	0.67434	8e-06
18	H	0.439928	0.764457	0.999997
19	C	0.619898	0.323594	0.999995
20	O	0.57889	0.316433	0.999991
21	C	0.656849	0.371452	0.999998
22	C	0.649546	0.406727	0
23	N	0.603643	0.398478	0
24	C	0.704272	0.379946	3e-06
25	O	0.737485	0.421195	5e-06
26	C	0.715776	0.343141	6e-06
27	C	0.759414	0.352023	5e-06
28	N	0.795367	0.398954	0
29	C	0.677039	0.295666	4e-06
30	O	0.686189	0.263838	7e-06
31	C	0.628858	0.285038	0.999999
32	C	0.594714	0.241727	0.999998
33	N	0.601711	0.203281	0
34	H	0.67784	0.441068	1e-06
35	H	0.768699	0.32566	8e-06
36	H	0.560072	0.235543	0.999997
37	O	0.495943	0.503974	0.821742
38	C	0.499535	0.504144	0.647805
39	C	0.481135	0.527793	0.528225
40	C	0.486457	0.529919	0.337694
41	C	0.467126	0.553617	0.233688
42	C	0.471078	0.596362	0.267921
43	C	0.446429	0.608176	0.132613
44	C	0.424466	0.573988	0
45	S	0.432834	0.528552	0.03468
46	C	0.511113	0.509049	0.246369
47	C	0.528239	0.485205	0.337345
48	C	0.552068	0.465835	0.23553
49	C	0.591934	0.464574	0.287352
50	C	0.60566	0.441812	0.151101
51	C	0.575534	0.426012	0
52	S	0.531579	0.437737	0.019223
53	C	0.523041	0.480436	0.549361
54	O	0.536908	0.458898	0.644414
55	H	0.463143	0.542483	0.605291
56	H	0.491088	0.618585	0.384973
57	H	0.445209	0.639974	0.134123
58	H	0.515745	0.514366	0.092535
59	H	0.610609	0.479277	0.419361
60	H	0.635741	0.437331	0.165826
61	O	0.495553	0.991815	0.821742
62	C	0.495354	0.995192	0.647805
63	C	0.471729	0.953564	0.528225
64	C	0.46955	0.956708	0.337694
65	C	0.445883	0.914112	0.233688
66	C	0.40289	0.875604	0.267921
67	C	0.391209	0.839548	0.132613
68	C	0.425743	0.851787	0
69	S	0.471344	0.905127	0.03468
70	C	0.490334	0.001755	0.246369
71	C	0.514164	0.042319	0.337345
72	C	0.533447	0.085062	0.23553
73	C	0.534401	0.125668	0.287352
74	C	0.557172	0.161803	0.151101
75	C	0.573288	0.147738	0
76	S	0.561848	0.092713	0.019223
77	C	0.518998	0.041919	0.549361
78	O	0.540537	0.076978	0.644414
79	H	0.457105	0.921227	0.605291
80	H	0.380397	0.873309	0.384973
81	H	0.359259	0.806796	0.134123
82	H	0.484954	0.001053	0.092535
83	H	0.519477	0.129516	0.419361
84	H	0.56144	0.195944	0.165826
85	O	0.007782	0.503498	0.821742
86	C	0.00439	0.499951	0.647805
87	C	0.046414	0.51793	0.528225
88	C	0.043271	0.512659	0.337694
89	C	0.08627	0.531558	0.233688
90	C	0.12531	0.527321	0.267921
91	C	0.161641	0.551563	0.132613
92	C	0.14907	0.573512	0
93	S	0.095101	0.565607	0.03468
94	C	0.997832	0.488483	0.246369
95	C	0.956875	0.471763	0.337345
96	C	0.913764	0.44839	0.23553
97	C	0.872944	0.409044	0.287352
98	C	0.836446	0.395672	0.151101
99	C	0.850456	0.425536	0
100	S	0.905851	0.468837	0.019223
101	C	0.957239	0.476931	0.549361
102	O	0.921833	0.463411	0.644414
103	H	0.079031	0.535577	0.605291
104	H	0.127794	0.507393	0.384973
105	H	0.194811	0.552518	0.134123
106	H	0.99858	0.483868	0.092535
107	H	0.869192	0.390493	0.419361
108	H	0.802098	0.366012	0.165826
