data_C138H54N6O18S18_2023-05-12_21:49:56
#******************************************
#
# CIF file created by Zeo++
# Zeo++ is an open source package to
# analyze microporous materials
#
#*******************************************

_cell_length_a		65.3668   
_cell_length_b		65.6652   
_cell_length_c		7   
_cell_angle_alpha		90   
_cell_angle_beta		90   
_cell_angle_gamma		119.801   

_symmetry_space_group_name_H-M		'P1'
_symmetry_Int_Tables_number		1
_symmetry_cell_setting		Monoclinic

loop_
_symmetry_equiv_pos_as_xyz
'+x,+y,+z'

loop_
_atom_site_label
_atom_site_type_symbol
_atom_site_fract_x
_atom_site_fract_y
_atom_site_fract_z
1	C	0.35705	0.671633	0.999995
2	O	0.377842	0.675284	0.999991
3	C	0.338233	0.64723	0.999998
4	C	0.341864	0.629242	0
5	N	0.365138	0.633449	0
6	C	0.314188	0.642898	3e-06
7	O	0.297277	0.621865	5e-06
8	C	0.308431	0.661666	6e-06
9	C	0.286303	0.657137	5e-06
10	N	0.267993	0.633206	0
11	C	0.328152	0.685874	4e-06
12	O	0.323579	0.702103	7e-06
13	C	0.352586	0.691293	0.999999
14	C	0.369972	0.713377	0.999998
15	N	0.366503	0.732981	0
16	H	0.32746	0.611732	1e-06
17	H	0.28165	0.670579	8e-06
18	H	0.387537	0.716531	0.999997
19	C	0.64295	0.328367	0.999995
20	O	0.622158	0.324716	0.999991
21	C	0.661767	0.35277	0.999998
22	C	0.658136	0.370758	0
23	N	0.634862	0.366551	0
24	C	0.685812	0.357102	3e-06
25	O	0.702723	0.378135	5e-06
26	C	0.691569	0.338334	6e-06
27	C	0.713697	0.342863	5e-06
28	N	0.732007	0.366794	0
29	C	0.671848	0.314126	4e-06
30	O	0.676421	0.297897	7e-06
31	C	0.647414	0.308707	0.999999
32	C	0.630028	0.286623	0.999998
33	N	0.633497	0.267019	0
34	H	0.67254	0.388268	1e-06
35	H	0.71835	0.329421	8e-06
36	H	0.612463	0.283469	0.999997
37	O	0.455095	0.43395	0.05063
38	C	0.459976	0.442727	0.209702
39	C	0.476123	0.438863	0.340176
40	O	0.476273	0.420382	0.329368
41	C	0.48969	0.457132	0.485479
42	C	0.509573	0.458251	0.576205
43	C	0.520295	0.444228	0.518907
44	C	0.518494	0.424512	0.604438
45	C	0.532031	0.416122	0.507133
46	C	0.544053	0.429685	0.350443
47	C	0.55935	0.426344	0.219847
48	C	0.56804	0.43711	0.045559
49	C	0.582606	0.429465	0.954758
50	C	0.584965	0.413001	0.060843
51	C	0.598227	0.401568	0.007905
52	C	0.605211	0.399526	0.825068
53	C	0.618179	0.387305	0.820269
54	C	0.620673	0.380591	0
55	S	0.607894	0.388626	0.171619
56	S	0.569321	0.407162	0.269718
57	S	0.538637	0.452659	0.325218
58	C	0.520131	0.473892	0.728445
59	C	0.51119	0.488058	0.789459
60	C	0.491904	0.48721	0.695075
61	C	0.481025	0.472272	0.539007
62	C	0.460907	0.472045	0.440249
63	C	0.451976	0.486929	0.495271
64	C	0.464903	0.504664	0.646592
65	O	0.462741	0.52188	0.673092
66	C	0.482448	0.501872	0.768173
67	O	0.488433	0.511446	0.92395
68	C	0.432249	0.485891	0.401462
69	C	0.421148	0.499616	0.459058
70	C	0.408329	0.497557	0.621561
71	C	0.400337	0.5142	0.625559
72	C	0.406984	0.528447	0.465483
73	C	0.401887	0.547143	0.427463
74	C	0.397299	0.559793	0.561619
75	C	0.392715	0.576935	0.477783
76	C	0.39379	0.57714	0.280466
77	C	0.390126	0.592068	0.148872
78	C	0.395914	0.595889	0.956457
79	C	0.389679	0.61176	0.870059
80	C	0.379327	0.619409	0
81	S	0.37708	0.608061	0.220788
82	S	0.400323	0.556279	0.201253
83	S	0.423052	0.521369	0.312567
84	C	0.422046	0.470396	0.247288
85	C	0.431245	0.456491	0.18556
86	C	0.450383	0.457339	0.281779
87	H	0.507774	0.416199	0.729309
88	H	0.532625	0.400605	0.551118
89	H	0.564132	0.449888	0.983098
90	H	0.590949	0.435978	0.817405
91	H	0.601088	0.406306	0.698639
92	H	0.625105	0.383767	0.691753
93	H	0.535408	0.475014	0.801119
94	H	0.519371	0.499829	0.910326
95	H	0.404948	0.484936	0.733963
96	H	0.390102	0.515515	0.741682
97	H	0.397422	0.557172	0.714319
98	H	0.38897	0.588617	0.560861
99	H	0.404383	0.58778	0.879304
100	H	0.39272	0.617061	0.721543
101	H	0.406846	0.46924	0.172886
102	H	0.423369	0.444935	0.063015
103	O	0.566154	0.021053	0.05063
104	C	0.557334	0.01716	0.209702
105	C	0.561144	0.03705	0.340176
106	O	0.579673	0.055607	0.329368
107	C	0.542774	0.032333	0.485479
108	C	0.541573	0.050971	0.576205
109	C	0.555589	0.075591	0.518907
110	C	0.575363	0.093439	0.604438
111	C	0.58372	0.115244	0.507133
112	C	0.570074	0.113678	0.350443
113	C	0.573363	0.132204	0.219847
114	C	0.562535	0.130114	0.045559
115	C	0.570141	0.152199	0.954758
116	C	0.586638	0.170941	0.060843
117	C	0.598048	0.195504	0.007905
118	C	0.600067	0.204476	0.825068
119	C	0.612267	0.229531	0.820269
120	C	0.618989	0.238697	0
121	S	0.610984	0.217998	0.171619
122	S	0.592554	0.161215	0.269718
123	S	0.547063	0.085415	0.325218
124	C	0.52585	0.045883	0.728445
125	C	0.511683	0.02289	0.789459
126	C	0.51261	0.004575	0.695075
127	C	0.52763	0.008645	0.539007
128	C	0.527938	0.988884	0.440249
129	C	0.513051	0.965187	0.495271
130	C	0.495219	0.960366	0.646592
131	O	0.477967	0.94107	0.673092
132	C	0.497949	0.980577	0.768173
133	O	0.488326	0.976987	0.92395
134	C	0.514171	0.946623	0.401462
135	C	0.500455	0.921924	0.459058
136	C	0.50257	0.911239	0.621561
137	C	0.485916	0.886723	0.625559
138	C	0.471607	0.879137	0.465483
139	C	0.452883	0.855452	0.427463
140	C	0.440219	0.838293	0.561619
141	C	0.423051	0.816666	0.477783
142	C	0.422841	0.817529	0.280466
143	C	0.40789	0.799022	0.148872
144	C	0.404036	0.800967	0.956457
145	C	0.388149	0.778964	0.870059
146	C	0.380522	0.761061	0
147	S	0.391908	0.770132	0.220788
148	S	0.44373	0.844798	0.201253
149	S	0.478638	0.90215	0.312567
150	C	0.529746	0.951919	0.247288
151	C	0.543651	0.974908	0.18556
152	C	0.542724	0.993076	0.281779
153	H	0.58374	0.091068	0.729309
154	H	0.599275	0.131289	0.551118
155	H	0.549739	0.113504	0.983098
156	H	0.563578	0.154	0.817405
157	H	0.593286	0.193627	0.698639
158	H	0.615786	0.239936	0.691753
159	H	0.524664	0.059942	0.801119
160	H	0.499849	0.019294	0.910326
161	H	0.515237	0.920451	0.733963
162	H	0.484639	0.875245	0.741682
163	H	0.442846	0.841026	0.714319
164	H	0.411354	0.801309	0.560861
165	H	0.412132	0.817456	0.879304
166	H	0.382823	0.776706	0.721543
167	H	0.530966	0.93797	0.172886
168	H	0.555268	0.978594	0.063015
169	O	0.978385	0.544633	0.05063
170	C	0.982324	0.539749	0.209702
171	C	0.962367	0.523723	0.340176
172	O	0.943688	0.523647	0.329368
173	C	0.96717	0.510172	0.485479
174	C	0.948488	0.490414	0.576205
175	C	0.92375	0.479817	0.518907
176	C	0.905777	0.481685	0.604438
177	C	0.883882	0.46827	0.507133
178	C	0.885507	0.456273	0.350443
179	C	0.866921	0.441089	0.219847
180	C	0.869059	0.432412	0.045559
181	C	0.846887	0.417972	0.954758
182	C	0.828031	0.415694	0.060843
183	C	0.80336	0.402565	0.007905
184	C	0.794356	0.395634	0.825068
185	C	0.769188	0.3828	0.820269
186	C	0.759972	0.380348	0
187	S	0.780756	0.393012	0.171619
188	S	0.837759	0.431259	0.269718
189	S	0.913934	0.461561	0.325218
190	C	0.953653	0.479862	0.728445
191	C	0.976761	0.488688	0.789459
192	C	0.99512	0.507851	0.695075
193	C	0.990979	0.518719	0.539007
194	C	0.010789	0.538707	0.440249
195	C	0.034607	0.54752	0.495271
196	C	0.039512	0.534606	0.646592
197	O	0.058925	0.536686	0.673092
198	C	0.019238	0.517188	0.768173
199	O	0.022875	0.511203	0.92395
200	C	0.053214	0.567123	0.401462
201	C	0.078031	0.578097	0.459058
202	C	0.088735	0.59084	0.621561
203	C	0.11338	0.598713	0.625559
204	C	0.121043	0.592053	0.465483
205	C	0.144864	0.597042	0.427463
206	C	0.162117	0.60155	0.561619
207	C	0.183868	0.606035	0.477783
208	C	0.183003	0.604966	0.280466
209	C	0.201617	0.608546	0.148872
210	C	0.199684	0.602781	0.956457
211	C	0.221806	0.608912	0.870059
212	C	0.239785	0.619166	0
213	S	0.230646	0.621444	0.220788
214	S	0.155582	0.598559	0.201253
215	S	0.097943	0.576117	0.312567
216	C	0.047842	0.577321	0.247288
217	C	0.024739	0.568238	0.18556
218	C	0.006527	0.549221	0.281779
219	H	0.908121	0.492369	0.729309
220	H	0.867734	0.467742	0.551118
221	H	0.885763	0.436244	0.983098
222	H	0.845107	0.409658	0.817405
223	H	0.80526	0.399703	0.698639
224	H	0.758743	0.375933	0.691753
225	H	0.939562	0.464681	0.801119
226	H	0.980414	0.480513	0.910326
227	H	0.079449	0.594249	0.733963
228	H	0.124893	0.608877	0.741682
229	H	0.159366	0.601438	0.714319
230	H	0.199311	0.609709	0.560861
231	H	0.18312	0.5944	0.879304
232	H	0.224091	0.605869	0.721543
233	H	0.061822	0.592426	0.172886
234	H	0.020997	0.576108	0.063015
