data_C66H30N12O12_2023-05-29_17:47:32
#******************************************
#
# CIF file created by Zeo++
# Zeo++ is an open source package to
# analyze microporous materials
#
#*******************************************

_cell_length_a		34.9518   
_cell_length_b		35.2505   
_cell_length_c		7   
_cell_angle_alpha		90   
_cell_angle_beta		90   
_cell_angle_gamma		119.63   

_symmetry_space_group_name_H-M		'P1'
_symmetry_Int_Tables_number		1
_symmetry_cell_setting		Monoclinic

loop_
_symmetry_equiv_pos_as_xyz
'+x,+y,+z'

loop_
_atom_site_label
_atom_site_type_symbol
_atom_site_fract_x
_atom_site_fract_y
_atom_site_fract_z
1	C	0.377656	0.675902	0.999995
2	O	0.416517	0.682693	0.999991
3	C	0.342622	0.630521	0.999998
4	C	0.349528	0.597071	0
5	N	0.393029	0.604893	0
6	C	0.29768	0.622466	3e-06
7	O	0.266191	0.583352	5e-06
8	C	0.286793	0.657366	6e-06
9	C	0.245438	0.648944	5e-06
10	N	0.21135	0.604442	0
11	C	0.323519	0.702385	4e-06
12	O	0.314861	0.732565	7e-06
13	C	0.36918	0.712462	0.999999
14	C	0.401552	0.753532	0.999998
15	N	0.394937	0.789988	0
16	H	0.322704	0.564508	1e-06
17	H	0.23665	0.673943	8e-06
18	H	0.434381	0.759396	0.999997
19	C	0.622344	0.324098	0.999995
20	O	0.583483	0.317307	0.999991
21	C	0.657378	0.369479	0.999998
22	C	0.650472	0.402929	0
23	N	0.606971	0.395107	0
24	C	0.70232	0.377534	3e-06
25	O	0.733809	0.416648	5e-06
26	C	0.713207	0.342634	6e-06
27	C	0.754562	0.351056	5e-06
28	N	0.78865	0.395558	0
29	C	0.676481	0.297615	4e-06
30	O	0.685139	0.267435	7e-06
31	C	0.63082	0.287538	0.999999
32	C	0.598448	0.246468	0.999998
33	N	0.605063	0.210012	0
34	H	0.677296	0.435492	1e-06
35	H	0.76335	0.326057	8e-06
36	H	0.565619	0.240604	0.999997
37	O	0.503807	0.496267	0.804695
38	C	0.501836	0.497323	0.630563
39	C	0.522468	0.477958	0.510629
40	C	0.521415	0.48021	0.319603
41	C	0.542929	0.46023	0.210308
42	C	0.518339	0.420719	0.115026
43	N	0.535986	0.400883	0.01065
44	C	0.580345	0.421215	0
45	C	0.607793	0.460664	0.089263
46	C	0.588713	0.48044	0.195722
47	C	0.500137	0.501598	0.225592
48	C	0.479321	0.519739	0.317225
49	C	0.458927	0.541013	0.208867
50	C	0.429802	0.520068	0.058575
51	N	0.410349	0.537969	0.952839
52	C	0.419655	0.578785	0
53	C	0.447778	0.60244	0.147775
54	C	0.467611	0.58321	0.253059
55	C	0.478426	0.518604	0.530784
56	O	0.459911	0.534044	0.624883
57	H	0.537995	0.462395	0.58715
58	H	0.482563	0.403166	0.119939
59	H	0.643308	0.475987	0.076888
60	H	0.609747	0.511466	0.265872
61	H	0.502327	0.502834	0.07004
62	H	0.420608	0.486926	0.016713
63	H	0.454278	0.635099	0.182299
64	H	0.489484	0.601433	0.370249
65	O	0.503264	0.007241	0.804695
66	C	0.502217	0.004245	0.630563
67	C	0.521523	0.043849	0.510629
68	C	0.519267	0.040573	0.319603
69	C	0.539184	0.081658	0.210308
70	C	0.579068	0.096584	0.115026
71	N	0.598869	0.133705	0.01065
72	C	0.578108	0.157344	0
73	C	0.538265	0.145303	0.089263
74	C	0.518536	0.106826	0.195722
75	C	0.497935	0.998324	0.225592
76	C	0.47986	0.959754	0.317225
77	C	0.458636	0.918492	0.208867
78	C	0.479898	0.91051	0.058575
79	N	0.462055	0.873525	0.952839
80	C	0.420974	0.842206	0
81	C	0.396995	0.846508	0.147775
82	C	0.416171	0.885187	0.253059
83	C	0.481007	0.959996	0.530784
84	O	0.46563	0.926381	0.624883
85	H	0.537045	0.074635	0.58715
86	H	0.596971	0.078664	0.119939
87	H	0.522605	0.165178	0.076888
88	H	0.487204	0.096809	0.265872
89	H	0.496676	0.99926	0.07004
90	H	0.513268	0.934324	0.016713
91	H	0.36413	0.820512	0.182299
92	H	0.397697	0.888707	0.370249
93	O	0.992246	0.495816	0.804695
94	C	0.995263	0.497755	0.630563
95	C	0.955325	0.477517	0.510629
96	C	0.958634	0.47854	0.319603
97	C	0.917203	0.457436	0.210308
98	C	0.901909	0.482021	0.115026
99	N	0.864461	0.464736	0.01065
100	C	0.840863	0.420764	0
101	C	0.853258	0.393356	0.089263
102	C	0.892067	0.412057	0.195722
103	C	0.001244	0.499402	0.225592
104	C	0.040135	0.51983	0.317225
105	C	0.081753	0.539818	0.208867
106	C	0.089616	0.568746	0.058575
107	N	0.126912	0.58783	0.952839
108	C	0.158687	0.578333	0
109	C	0.154542	0.550376	0.147775
110	C	0.115535	0.530927	0.253059
111	C	0.039883	0.520723	0.530784
112	O	0.073775	0.538898	0.624883
113	H	0.924276	0.462294	0.58715
114	H	0.919782	0.517494	0.119939
115	H	0.833403	0.358158	0.076888
116	H	0.902365	0.391049	0.265872
117	H	0.000314	0.497229	0.07004
118	H	0.06544	0.578074	0.016713
119	H	0.180908	0.543712	0.182299
120	H	0.112135	0.509183	0.370249
