data_C108H48N6O12S18_2023-05-13_04:17:05
#******************************************
#
# CIF file created by Zeo++
# Zeo++ is an open source package to
# analyze microporous materials
#
#*******************************************

_cell_length_a		59.227   
_cell_length_b		59.5254   
_cell_length_c		7   
_cell_angle_alpha		90   
_cell_angle_beta		90   
_cell_angle_gamma		119.781   

_symmetry_space_group_name_H-M		'P1'
_symmetry_Int_Tables_number		1
_symmetry_cell_setting		Monoclinic

loop_
_symmetry_equiv_pos_as_xyz
'+x,+y,+z'

loop_
_atom_site_label
_atom_site_type_symbol
_atom_site_fract_x
_atom_site_fract_y
_atom_site_fract_z
1	C	0.359506	0.672144	0.999995
2	O	0.382452	0.676171	0.999991
3	C	0.33875	0.645229	0.999998
4	C	0.342765	0.625391	0
5	N	0.368451	0.63003	0
6	C	0.312214	0.640452	3e-06
7	O	0.29356	0.617254	5e-06
8	C	0.305852	0.661151	6e-06
9	C	0.281432	0.656156	5e-06
10	N	0.261235	0.629762	0
11	C	0.327606	0.68785	4e-06
12	O	0.322552	0.70575	7e-06
13	C	0.354571	0.693827	0.999999
14	C	0.373749	0.718185	0.999998
15	N	0.369911	0.739807	0
16	H	0.326876	0.606078	1e-06
17	H	0.27629	0.670982	8e-06
18	H	0.393133	0.721663	0.999997
19	C	0.640494	0.327856	0.999995
20	O	0.617548	0.323829	0.999991
21	C	0.66125	0.354771	0.999998
22	C	0.657235	0.374609	0
23	N	0.631549	0.36997	0
24	C	0.687786	0.359548	3e-06
25	O	0.70644	0.382746	5e-06
26	C	0.694148	0.338849	6e-06
27	C	0.718568	0.343844	5e-06
28	N	0.738765	0.370238	0
29	C	0.672394	0.31215	4e-06
30	O	0.677448	0.29425	7e-06
31	C	0.645429	0.306173	0.999999
32	C	0.626251	0.281815	0.999998
33	N	0.630089	0.260193	0
34	H	0.673124	0.393922	1e-06
35	H	0.72371	0.329018	8e-06
36	H	0.606867	0.278337	0.999997
37	O	0.490806	0.509088	0.904619
38	C	0.497801	0.511172	0.738195
39	C	0.505048	0.492815	0.655799
40	C	0.510186	0.493305	0.468441
41	C	0.517744	0.47515	0.402272
42	C	0.505784	0.448685	0.429613
43	C	0.519686	0.437364	0.344709
44	C	0.542152	0.455293	0.25293
45	C	0.561002	0.450804	0.15355
46	C	0.579152	0.466416	0.019142
47	C	0.594622	0.455874	0.95029
48	C	0.588211	0.432384	0.033665
49	C	0.599911	0.416544	0.993142
50	C	0.613482	0.417353	0.829349
51	C	0.62268	0.39926	0.832957
52	C	0.615884	0.385455	0
53	S	0.5989	0.393766	0.150187
54	S	0.563335	0.423603	0.194338
55	S	0.545635	0.485631	0.269217
56	C	0.507599	0.511391	0.34255
57	C	0.502578	0.52995	0.401817
58	C	0.500784	0.546826	0.265703
59	C	0.518363	0.561915	0.12641
60	C	0.509503	0.57612	0.015465
61	C	0.485209	0.571713	0.070698
62	C	0.470777	0.583017	0.986706
63	C	0.474188	0.593584	0.805998
64	C	0.456955	0.603298	0.766752
65	C	0.440639	0.600158	0.918154
66	C	0.421209	0.60819	0.924917
67	C	0.419379	0.625618	0.803151
68	C	0.397851	0.629305	0.846603
69	C	0.384116	0.614545	0
70	S	0.396393	0.596531	0.090621
71	S	0.446731	0.585387	0.10576
72	S	0.473445	0.54992	0.255427
73	C	0.499802	0.532815	0.610594
74	O	0.4997	0.551553	0.680967
75	H	0.506198	0.479617	0.756887
76	H	0.487736	0.437687	0.507708
77	H	0.513287	0.416859	0.352057
78	H	0.581388	0.484675	0.969778
79	H	0.609854	0.465387	0.844532
80	H	0.616589	0.430195	0.710186
81	H	0.633565	0.396722	0.718895
82	H	0.509667	0.508954	0.190383
83	H	0.537067	0.56308	0.105785
84	H	0.520776	0.589227	0.901579
85	H	0.488274	0.594247	0.704107
86	H	0.456669	0.612091	0.632026
87	H	0.432921	0.635553	0.687659
88	H	0.393036	0.642118	0.769147
89	O	0.490657	0.981691	0.904619
90	C	0.488536	0.98656	0.738195
91	C	0.506913	0.012031	0.655799
92	C	0.506398	0.016644	0.468441
93	C	0.524572	0.042223	0.402272
94	C	0.551164	0.056698	0.429613
95	C	0.562456	0.081771	0.344709
96	C	0.544377	0.086225	0.25293
97	C	0.548796	0.109408	0.15355
98	C	0.53306	0.111885	0.019142
99	C	0.543564	0.137739	0.95029
100	C	0.567149	0.154761	0.033665
101	C	0.582982	0.182147	0.993142
102	C	0.582111	0.194815	0.829349
103	C	0.600215	0.22196	0.832957
104	C	0.614089	0.228957	0
105	S	0.605829	0.203821	0.150187
106	S	0.576064	0.138806	0.194338
107	S	0.513938	0.059478	0.269217
108	C	0.488273	0.996069	0.34255
109	C	0.469683	0.972607	0.401817
110	C	0.452768	0.954025	0.265703
111	C	0.437558	0.956455	0.12641
112	C	0.423352	0.933516	0.015465
113	C	0.427879	0.913784	0.070698
114	C	0.416606	0.888202	0.986706
115	C	0.405994	0.881067	0.805998
116	C	0.396329	0.854288	0.766752
117	C	0.399549	0.841215	0.918154
118	C	0.39158	0.813929	0.924917
119	C	0.374111	0.794761	0.803151
120	C	0.370508	0.769717	0.846603
121	C	0.38537	0.770776	0
122	S	0.403382	0.8009	0.090621
123	S	0.414336	0.86197	0.10576
124	S	0.449785	0.923802	0.255427
125	C	0.466823	0.967	0.610594
126	O	0.448032	0.948242	0.680967
127	H	0.520143	0.026313	0.756887
128	H	0.562274	0.04973	0.507708
129	H	0.583047	0.095832	0.352057
130	H	0.51474	0.095926	0.969778
131	H	0.533957	0.143391	0.844532
132	H	0.569218	0.185113	0.710186
133	H	0.602712	0.235293	0.718895
134	H	0.490708	0.00055	0.190383
135	H	0.436308	0.973864	0.105785
136	H	0.410158	0.931659	0.901579
137	H	0.405268	0.894393	0.704107
138	H	0.387512	0.84525	0.632026
139	H	0.364089	0.798314	0.687659
140	H	0.357681	0.752181	0.769147
141	O	0.018133	0.50882	0.904619
142	C	0.01326	0.501866	0.738195
143	C	0.987635	0.494753	0.655799
144	C	0.983012	0.489649	0.468441
145	C	0.95728	0.482225	0.402272
146	C	0.942648	0.494216	0.429613
147	C	0.917453	0.480464	0.344709
148	C	0.913067	0.45808	0.25293
149	C	0.889798	0.439386	0.15355
150	C	0.887384	0.421298	0.019142
151	C	0.86141	0.405986	0.95029
152	C	0.844236	0.412454	0.033665
153	C	0.816703	0.400908	0.993142
154	C	0.804003	0.387431	0.829349
155	C	0.776701	0.378379	0.832957
156	C	0.769624	0.385187	0
157	S	0.794867	0.402012	0.150187
158	S	0.860197	0.43719	0.194338
159	S	0.940023	0.454489	0.269217
160	C	0.003725	0.492138	0.34255
161	C	0.027335	0.497041	0.401817
162	C	0.046045	0.498748	0.265703
163	C	0.043675	0.481229	0.12641
164	C	0.066741	0.489962	0.015465
165	C	0.086509	0.514101	0.070698
166	C	0.112213	0.528379	0.986706
167	C	0.119415	0.524947	0.805998
168	C	0.146313	0.542013	0.766752
169	C	0.159408	0.558225	0.918154
170	C	0.186806	0.577479	0.924917
171	C	0.206106	0.57922	0.803151
172	C	0.231237	0.600577	0.846603
173	C	0.230109	0.614278	0
174	S	0.199821	0.602168	0.090621
175	S	0.13853	0.552242	0.10576
176	S	0.076366	0.525877	0.255427
177	C	0.032971	0.499784	0.610594
178	O	0.051864	0.499803	0.680967
179	H	0.973255	0.493669	0.756887
180	H	0.949586	0.512182	0.507708
181	H	0.903262	0.486908	0.352057
182	H	0.903469	0.418998	0.969778
183	H	0.855785	0.390821	0.844532
184	H	0.813789	0.38429	0.710186
185	H	0.763319	0.367584	0.718895
186	H	0.999221	0.490095	0.190383
187	H	0.026221	0.462654	0.105785
188	H	0.068662	0.478713	0.901579
189	H	0.106055	0.510959	0.704107
190	H	0.155415	0.542258	0.632026
191	H	0.202587	0.565732	0.687659
192	H	0.248879	0.6053	0.769147
