data_C84H36N6O12S12_2023-05-28_09:05:28
#******************************************
#
# CIF file created by Zeo++
# Zeo++ is an open source package to
# analyze microporous materials
#
#*******************************************

_cell_length_a		39.2536   
_cell_length_b		39.5522   
_cell_length_c		7   
_cell_angle_alpha		90   
_cell_angle_beta		90   
_cell_angle_gamma		119.67   

_symmetry_space_group_name_H-M		'P1'
_symmetry_Int_Tables_number		1
_symmetry_cell_setting		Monoclinic

loop_
_symmetry_equiv_pos_as_xyz
'+x,+y,+z'

loop_
_atom_site_label
_atom_site_type_symbol
_atom_site_fract_x
_atom_site_fract_y
_atom_site_fract_z
1	C	0.372805	0.674901	0.999995
2	O	0.407413	0.680955	0.999991
3	C	0.341578	0.634439	0.999998
4	C	0.347703	0.604615	0
5	N	0.386443	0.61159	0
6	C	0.301555	0.627257	3e-06
7	O	0.273488	0.592384	5e-06
8	C	0.291887	0.658375	6e-06
9	C	0.255058	0.650865	5e-06
10	N	0.224673	0.611187	0
11	C	0.324621	0.698513	4e-06
12	O	0.316934	0.725422	7e-06
13	C	0.365285	0.707498	0.999999
14	C	0.394139	0.744115	0.999998
15	N	0.388276	0.77662	0
16	H	0.323795	0.575582	1e-06
17	H	0.24725	0.673154	8e-06
18	H	0.423375	0.749344	0.999997
19	C	0.627195	0.325099	0.999995
20	O	0.592587	0.319045	0.999991
21	C	0.658422	0.365561	0.999998
22	C	0.652297	0.395385	0
23	N	0.613557	0.38841	0
24	C	0.698445	0.372743	3e-06
25	O	0.726512	0.407616	5e-06
26	C	0.708113	0.341625	6e-06
27	C	0.744942	0.349135	5e-06
28	N	0.775327	0.388813	0
29	C	0.675379	0.301487	4e-06
30	O	0.683066	0.274578	7e-06
31	C	0.634715	0.292502	0.999999
32	C	0.605861	0.255885	0.999998
33	N	0.611724	0.22338	0
34	H	0.676205	0.424418	1e-06
35	H	0.75275	0.326846	8e-06
36	H	0.576625	0.250656	0.999997
37	O	0.495764	0.504162	0.30221
38	C	0.491899	0.496936	0.131107
39	C	0.468119	0.508281	0.012898
40	C	0.462303	0.499218	0.826479
41	C	0.438773	0.511682	0.723349
42	C	0.402721	0.507748	0.770207
43	C	0.388687	0.524204	0.630806
44	C	0.414045	0.540517	0.478301
45	C	0.408516	0.559688	0.314508
46	C	0.3837	0.575221	0.303207
47	C	0.384677	0.591902	0.120914
48	C	0.410132	0.588311	0
49	S	0.432507	0.565578	0.10048
50	S	0.454805	0.535721	0.50875
51	C	0.479331	0.477575	0.738567
52	C	0.502575	0.466539	0.827979
53	C	0.518046	0.445273	0.729741
54	C	0.521816	0.41419	0.794377
55	C	0.539057	0.400506	0.657422
56	C	0.548566	0.421298	0.488631
57	C	0.566698	0.414989	0.322478
58	C	0.588772	0.39638	0.318626
59	C	0.602304	0.39453	0.131614
60	C	0.589868	0.411689	0
61	S	0.562626	0.429697	0.096091
62	S	0.536762	0.457557	0.501363
63	C	0.511068	0.476019	0.035127
64	O	0.532163	0.467563	0.128479
65	H	0.45641	0.524374	0.087119
66	H	0.386705	0.493404	0.898886
67	H	0.360894	0.523644	0.642773
68	H	0.365629	0.575008	0.420685
69	H	0.367618	0.605615	0.082927
70	H	0.471611	0.469965	0.589013
71	H	0.512707	0.401653	0.935722
72	H	0.544057	0.376312	0.683509
73	H	0.595349	0.384728	0.444555
74	H	0.620073	0.381364	0.097951
75	O	0.495439	0.991475	0.30221
76	C	0.502723	0.99483	0.131107
77	C	0.491487	0.960038	0.012898
78	C	0.500626	0.963287	0.826479
79	C	0.488265	0.92763	0.723349
80	C	0.492454	0.895876	0.770207
81	C	0.476021	0.865646	0.630806
82	C	0.45947	0.874525	0.478301
83	C	0.440254	0.850012	0.314508
84	C	0.424818	0.810034	0.303207
85	C	0.408059	0.794431	0.120914
86	C	0.411497	0.823177	0
87	S	0.434179	0.867893	0.10048
88	S	0.464017	0.919609	0.50875
89	C	0.52225	0.001631	0.738567
90	C	0.533179	0.035586	0.827979
91	C	0.554433	0.072015	0.729741
92	C	0.585625	0.106621	0.794377
93	C	0.599254	0.137269	0.657422
94	C	0.57831	0.126021	0.488631
95	C	0.584526	0.150224	0.322478
96	C	0.603067	0.190544	0.318626
97	C	0.604836	0.205768	0.131614
98	C	0.587686	0.176421	0
99	S	0.569781	0.131585	0.096091
100	S	0.541973	0.078325	0.501363
101	C	0.523602	0.034569	0.035127
102	O	0.531955	0.063837	0.128479
103	H	0.475401	0.932468	0.087119
104	H	0.506966	0.894282	0.898886
105	H	0.476768	0.838711	0.642773
106	H	0.425152	0.792371	0.420685
107	H	0.394401	0.763934	0.082927
108	H	0.529943	0.001553	0.589013
109	H	0.598276	0.110064	0.935722
110	H	0.623518	0.166249	0.683509
111	H	0.614726	0.208625	0.444555
112	H	0.617941	0.236423	0.097951
113	O	0.008187	0.50376	0.30221
114	C	0.004769	0.507631	0.131107
115	C	0.039785	0.531079	0.012898
116	C	0.036461	0.536892	0.826479
117	C	0.072353	0.560085	0.723349
118	C	0.104216	0.595773	0.770207
119	C	0.134683	0.609546	0.630806
120	C	0.125876	0.584354	0.478301
121	C	0.150621	0.589697	0.314508
122	C	0.190873	0.614141	0.303207
123	C	0.206654	0.613064	0.120914
124	C	0.177762	0.587909	0
125	S	0.132704	0.565926	0.10048
126	S	0.080569	0.544067	0.50875
127	C	0.99781	0.520191	0.738567
128	C	0.963637	0.497272	0.827979
129	C	0.926911	0.482109	0.729741
130	C	0.89195	0.478586	0.794377
131	C	0.86108	0.461622	0.657422
132	C	0.872515	0.452078	0.488631
133	C	0.848167	0.434184	0.322478
134	C	0.807552	0.412472	0.318626
135	C	0.792251	0.399099	0.131614
136	C	0.821837	0.411287	0
137	S	0.866984	0.438115	0.096091
138	S	0.920656	0.463515	0.501363
139	C	0.964722	0.488808	0.035127
140	O	0.935273	0.467997	0.128479
141	H	0.06758	0.542555	0.087119
142	H	0.105721	0.611711	0.898886
143	H	0.161729	0.637042	0.642773
144	H	0.208609	0.632018	0.420685
145	H	0.237372	0.629848	0.082927
146	H	0.997837	0.527878	0.589013
147	H	0.888409	0.48768	0.935722
148	H	0.831816	0.456837	0.683509
149	H	0.789316	0.406043	0.444555
150	H	0.761377	0.38161	0.097951
