data_C108H42N12O18S12_2023-05-11_14:33:16
#******************************************
#
# CIF file created by Zeo++
# Zeo++ is an open source package to
# analyze microporous materials
#
#*******************************************

_cell_length_a		49.8597   
_cell_length_b		50.1582   
_cell_length_c		7   
_cell_angle_alpha		90   
_cell_angle_beta		90   
_cell_angle_gamma		119.74   

_symmetry_space_group_name_H-M		'P1'
_symmetry_Int_Tables_number		1
_symmetry_cell_setting		Monoclinic

loop_
_symmetry_equiv_pos_as_xyz
'+x,+y,+z'

loop_
_atom_site_label
_atom_site_type_symbol
_atom_site_fract_x
_atom_site_fract_y
_atom_site_fract_z
1	C	0.364418	0.673164	0.999995
2	O	0.391671	0.677942	0.999991
3	C	0.339788	0.641236	0.999998
4	C	0.344578	0.617702	0
5	N	0.375084	0.623206	0
6	C	0.308271	0.635569	3e-06
7	O	0.286136	0.60805	5e-06
8	C	0.300694	0.660123	6e-06
9	C	0.271691	0.654198	5e-06
10	N	0.247725	0.622888	0
11	C	0.326509	0.691796	4e-06
12	O	0.320488	0.71303	7e-06
13	C	0.358534	0.698886	0.999999
14	C	0.381291	0.727781	0.999998
15	N	0.376711	0.75343	0
16	H	0.325723	0.594792	1e-06
17	H	0.265569	0.671786	8e-06
18	H	0.404314	0.731907	0.999997
19	C	0.635582	0.326836	0.999995
20	O	0.608329	0.322058	0.999991
21	C	0.660212	0.358764	0.999998
22	C	0.655422	0.382298	0
23	N	0.624916	0.376794	0
24	C	0.691729	0.364431	3e-06
25	O	0.713864	0.39195	5e-06
26	C	0.699306	0.339877	6e-06
27	C	0.728309	0.345802	5e-06
28	N	0.752275	0.377112	0
29	C	0.673491	0.308204	4e-06
30	O	0.679512	0.28697	7e-06
31	C	0.641466	0.301114	0.999999
32	C	0.618709	0.272219	0.999998
33	N	0.623289	0.24657	0
34	H	0.674277	0.405208	1e-06
35	H	0.734431	0.328214	8e-06
36	H	0.595686	0.268093	0.999997
37	O	0.48997	0.510529	0.749497
38	C	0.511917	0.515009	0.649154
39	N	0.527272	0.498966	0.672752
40	C	0.547577	0.497529	0.546147
41	O	0.553426	0.476621	0.558425
42	C	0.560279	0.521546	0.393685
43	C	0.546724	0.54046	0.371772
44	C	0.52295	0.537665	0.492093
45	C	0.509488	0.556164	0.469138
46	C	0.519376	0.578262	0.324168
47	C	0.504597	0.597157	0.314763
48	C	0.477566	0.591099	0.223979
49	C	0.470372	0.615105	0.249961
50	C	0.441334	0.615395	0.163366
51	C	0.434524	0.638716	0.188287
52	C	0.406688	0.632547	0.092748
53	C	0.393708	0.604837	0
54	S	0.414144	0.586368	0.025449
55	C	0.492141	0.638462	0.361595
56	S	0.52081	0.631414	0.434664
57	C	0.54297	0.581331	0.199832
58	C	0.553877	0.603554	0.037085
59	O	0.540298	0.616733	0.980623
60	N	0.579989	0.607917	0.943693
61	C	0.592669	0.589211	0.952031
62	O	0.61212	0.591204	0.837467
63	C	0.580966	0.565884	0.105259
64	C	0.556979	0.562873	0.224381
65	C	0.594545	0.547504	0.128858
66	C	0.584569	0.525314	0.273318
67	C	0.60074	0.507803	0.290502
68	C	0.595269	0.481476	0.195151
69	C	0.616463	0.471412	0.248487
70	C	0.616289	0.442014	0.167273
71	C	0.636771	0.432305	0.219682
72	C	0.630929	0.404919	0.121891
73	C	0.606292	0.395163	0
74	S	0.590284	0.418053	0.001137
75	C	0.637516	0.490718	0.38163
76	S	0.631837	0.520679	0.440629
77	H	0.518251	0.481999	0.771384
78	H	0.491237	0.553503	0.566682
79	H	0.463828	0.570488	0.141001
80	H	0.448552	0.659359	0.270202
81	H	0.397067	0.647731	0.093207
82	H	0.492981	0.659512	0.40545
83	H	0.586437	0.622318	0.830417
84	H	0.613337	0.550705	0.034392
85	H	0.576659	0.469861	0.093245
86	H	0.655148	0.44394	0.322918
87	H	0.644169	0.39333	0.141322
88	H	0.656153	0.489069	0.448683
89	O	0.489166	0.979423	0.749497
90	C	0.484557	0.996726	0.649154
91	N	0.500574	0.02791	0.672752
92	C	0.501909	0.04947	0.546147
93	O	0.522857	0.076068	0.558425
94	C	0.477745	0.038172	0.393685
95	C	0.458838	0.005918	0.371772
96	C	0.461767	0.985127	0.492093
97	C	0.443276	0.953378	0.469138
98	C	0.421052	0.941199	0.324168
99	C	0.40217	0.90775	0.314763
100	C	0.40839	0.886976	0.223979
101	C	0.384341	0.855964	0.249961
102	C	0.384201	0.826884	0.163366
103	C	0.360838	0.796934	0.188287
104	C	0.367173	0.775472	0.092748
105	C	0.395044	0.790168	0
106	S	0.413468	0.828801	0.025449
107	C	0.360791	0.854311	0.361595
108	S	0.367713	0.889747	0.434664
109	C	0.417849	0.961539	0.199832
110	C	0.395494	0.950246	0.037085
111	O	0.382342	0.923673	0.980623
112	N	0.39098	0.971794	0.943693
113	C	0.409683	0.002975	0.952031
114	O	0.407581	0.020276	0.837467
115	C	0.43315	0.014577	0.105259
116	C	0.436297	0.99379	0.224381
117	C	0.451521	0.046324	0.128858
118	C	0.473838	0.058507	0.273318
119	C	0.491323	0.091959	0.290502
120	C	0.517768	0.112725	0.195151
121	C	0.527754	0.143748	0.248487
122	C	0.557252	0.172821	0.167273
123	C	0.566888	0.202787	0.219682
124	C	0.594396	0.224237	0.121891
125	C	0.604313	0.209515	0
126	S	0.58143	0.170873	0.001137
127	C	0.508274	0.145417	0.38163
128	S	0.478241	0.109982	0.440629
129	H	0.517645	0.035844	0.771384
130	H	0.446041	0.93793	0.566682
131	H	0.429143	0.893859	0.141001
132	H	0.340052	0.790307	0.270202
133	H	0.351988	0.750828	0.093207
134	H	0.339666	0.834204	0.40545
135	H	0.376497	0.963861	0.830417
136	H	0.44821	0.06177	0.034392
137	H	0.529519	0.105828	0.093245
138	H	0.555116	0.209432	0.322918
139	H	0.605954	0.248892	0.141322
140	H	0.50983	0.165535	0.448683
141	O	0.020384	0.509572	0.749497
142	C	0.003046	0.487789	0.649154
143	N	0.971674	0.472648	0.672752
144	C	0.950034	0.452525	0.546147
145	O	0.923237	0.446835	0.558425
146	C	0.961496	0.439805	0.393685
147	C	0.993958	0.453146	0.371772
148	C	0.014804	0.476731	0.492093
149	C	0.046756	0.489982	0.469138
150	C	0.059092	0.480063	0.324168
151	C	0.092753	0.494617	0.314763
152	C	0.113564	0.521449	0.223979
153	C	0.144807	0.528456	0.249961
154	C	0.173985	0.557244	0.163366
155	C	0.204158	0.563874	0.188287
156	C	0.225659	0.591505	0.092748
157	C	0.210768	0.604519	0
158	S	0.171909	0.584355	0.025449
159	C	0.146589	0.506751	0.361595
160	S	0.110997	0.478363	0.434664
161	C	0.038701	0.456654	0.199832
162	C	0.050149	0.445724	0.037085
163	O	0.07688	0.459118	0.980623
164	N	0.028551	0.419812	0.943693
165	C	0.997168	0.407338	0.952031
166	O	0.979819	0.388043	0.837467
167	C	0.985404	0.419063	0.105259
168	C	0.006244	0.442861	0.224381
169	C	0.953454	0.405696	0.128858
170	C	0.941113	0.415703	0.273318
171	C	0.907457	0.399762	0.290502
172	C	0.886484	0.405324	0.195151
173	C	0.855304	0.384364	0.248487
174	C	0.825979	0.384689	0.167273
175	C	0.795861	0.364433	0.219682
176	C	0.774195	0.370368	0.121891
177	C	0.788916	0.394846	0
178	S	0.827807	0.410597	0.001137
179	C	0.853731	0.36339	0.38163
180	S	0.889442	0.368863	0.440629
181	H	0.963624	0.481681	0.771384
182	H	0.062242	0.508091	0.566682
183	H	0.106549	0.535177	0.141001
184	H	0.210916	0.549858	0.270202
185	H	0.250466	0.600965	0.093207
186	H	0.166874	0.505808	0.40545
187	H	0.036587	0.413345	0.830417
188	H	0.937973	0.387048	0.034392
189	H	0.893342	0.423835	0.093245
190	H	0.789255	0.346152	0.322918
191	H	0.749397	0.357301	0.141322
192	H	0.833537	0.344919	0.448683
