data_C108H42N12O18S12_2023-05-15_15:57:38
#******************************************
#
# CIF file created by Zeo++
# Zeo++ is an open source package to
# analyze microporous materials
#
#*******************************************

_cell_length_a		51.4296   
_cell_length_b		51.728   
_cell_length_c		7   
_cell_angle_alpha		90   
_cell_angle_beta		90   
_cell_angle_gamma		119.748   

_symmetry_space_group_name_H-M		'P1'
_symmetry_Int_Tables_number		1
_symmetry_cell_setting		Monoclinic

loop_
_symmetry_equiv_pos_as_xyz
'+x,+y,+z'

loop_
_atom_site_label
_atom_site_type_symbol
_atom_site_fract_x
_atom_site_fract_y
_atom_site_fract_z
1	C	0.36347	0.672967	0.999995
2	O	0.389892	0.6776	0.999991
3	C	0.339588	0.642006	0.999998
4	C	0.344227	0.619185	0
5	N	0.373803	0.624521	0
6	C	0.309032	0.63651	3e-06
7	O	0.287568	0.609825	5e-06
8	C	0.30169	0.660321	6e-06
9	C	0.273571	0.654575	5e-06
10	N	0.250332	0.624213	0
11	C	0.326722	0.691036	4e-06
12	O	0.320887	0.711627	7e-06
13	C	0.35777	0.697911	0.999999
14	C	0.379836	0.725931	0.999998
15	N	0.3754	0.750804	0
16	H	0.325944	0.596968	1e-06
17	H	0.267639	0.671631	8e-06
18	H	0.402157	0.729932	0.999997
19	C	0.63653	0.327033	0.999995
20	O	0.610108	0.3224	0.999991
21	C	0.660412	0.357994	0.999998
22	C	0.655773	0.380815	0
23	N	0.626197	0.375479	0
24	C	0.690968	0.36349	3e-06
25	O	0.712432	0.390175	5e-06
26	C	0.69831	0.339679	6e-06
27	C	0.726429	0.345425	5e-06
28	N	0.749668	0.375787	0
29	C	0.673278	0.308964	4e-06
30	O	0.679113	0.288373	7e-06
31	C	0.64223	0.302089	0.999999
32	C	0.620164	0.274069	0.999998
33	N	0.6246	0.249196	0
34	H	0.674056	0.403032	1e-06
35	H	0.732361	0.328369	8e-06
36	H	0.597843	0.270068	0.999997
37	O	0.564273	0.583618	0.488724
38	C	0.553386	0.556929	0.458426
39	N	0.570649	0.543791	0.436365
40	C	0.560931	0.513811	0.444169
41	O	0.578912	0.505325	0.474413
42	C	0.527988	0.493288	0.423391
43	C	0.509087	0.506025	0.429715
44	C	0.520659	0.536835	0.448462
45	C	0.501956	0.549273	0.455534
46	C	0.470812	0.531222	0.444535
47	C	0.453056	0.546213	0.445088
48	C	0.443039	0.555638	0.598085
49	C	0.426492	0.569648	0.538434
50	C	0.424644	0.571015	0.341682
51	C	0.409139	0.583397	0.236564
52	C	0.385017	0.586013	0.30045
53	C	0.374912	0.599468	0.162976
54	C	0.391856	0.606708	0
55	S	0.419261	0.597709	0.009384
56	S	0.443204	0.555146	0.232105
57	C	0.458564	0.500169	0.42881
58	C	0.425506	0.479366	0.425815
59	O	0.407063	0.486558	0.472837
60	N	0.416189	0.450384	0.375771
61	C	0.433207	0.436789	0.380953
62	O	0.422078	0.409688	0.376862
63	C	0.465899	0.456754	0.397205
64	C	0.477501	0.487524	0.418128
65	C	0.484591	0.444325	0.388518
66	C	0.515746	0.462333	0.400343
67	C	0.5335	0.44744	0.383655
68	C	0.542528	0.435047	0.524725
69	C	0.55909	0.421933	0.449428
70	C	0.562099	0.424283	0.252566
71	C	0.577288	0.41348	0.129137
72	C	0.576218	0.411328	0.931338
73	C	0.594086	0.399608	0.85633
74	C	0.608144	0.393292	0
75	S	0.600289	0.401027	0.220018
76	S	0.544639	0.442712	0.162522
77	H	0.592886	0.557284	0.45683
78	H	0.51181	0.573378	0.467555
79	H	0.446942	0.552354	0.745906
80	H	0.416491	0.57836	0.636925
81	H	0.374733	0.578363	0.439378
82	H	0.356313	0.603418	0.184272
83	H	0.393784	0.436492	0.380329
84	H	0.474751	0.420308	0.370423
85	H	0.537833	0.435503	0.675173
86	H	0.568258	0.411221	0.538025
87	H	0.563148	0.417769	0.842214
88	H	0.596249	0.396151	0.705912
89	O	0.415472	0.980393	0.488724
90	C	0.442303	0.99615	0.458426
91	N	0.455396	0.026342	0.436365
92	C	0.485524	0.046532	0.444169
93	O	0.493946	0.072807	0.474413
94	C	0.506281	0.03428	0.423391
95	C	0.493598	0.002863	0.429715
96	C	0.462629	0.983686	0.448462
97	C	0.450245	0.952762	0.455534
98	C	0.468512	0.939836	0.444535
99	C	0.453563	0.907312	0.445088
100	C	0.444158	0.888001	0.598085
101	C	0.430185	0.857652	0.538434
102	C	0.428824	0.854459	0.341682
103	C	0.41648	0.826763	0.236564
104	C	0.413977	0.800238	0.30045
105	C	0.400529	0.77683	0.162976
106	C	0.39318	0.78643	0
107	S	0.40207	0.822562	0.009384
108	S	0.444651	0.888655	0.232105
109	C	0.499729	0.958585	0.42881
110	C	0.520767	0.946498	0.425815
111	O	0.513645	0.921052	0.472837
112	N	0.549892	0.966094	0.375771
113	C	0.563444	0.996497	0.380953
114	O	0.59069	0.012423	0.376862
115	C	0.543249	0.009055	0.397205
116	C	0.512319	0.989946	0.418128
117	C	0.555623	0.039957	0.388518
118	C	0.537399	0.052938	0.400343
119	C	0.552251	0.085363	0.383655
120	C	0.564638	0.106646	0.524725
121	C	0.577711	0.136118	0.449428
122	C	0.575338	0.136765	0.252566
123	C	0.586099	0.162576	0.129137
124	C	0.588264	0.163656	0.931338
125	C	0.599932	0.193037	0.85633
126	C	0.606197	0.213263	0
127	S	0.598476	0.197776	0.220018
128	S	0.556938	0.101114	0.162522
129	H	0.441747	0.03497	0.45683
130	H	0.426011	0.938552	0.467555
131	H	0.447433	0.895139	0.745906
132	H	0.421496	0.839066	0.636925
133	H	0.421705	0.797651	0.439378
134	H	0.396661	0.754456	0.184272
135	H	0.563942	0.957695	0.380329
136	H	0.579768	0.054094	0.370423
137	H	0.564204	0.101535	0.675173
138	H	0.588412	0.155868	0.538025
139	H	0.581868	0.144286	0.842214
140	H	0.603388	0.198621	0.705912
141	O	0.01979	0.435527	0.488724
142	C	0.003846	0.446459	0.458426
143	N	0.973489	0.429406	0.436365
144	C	0.95308	0.439196	0.444169
145	O	0.926677	0.421407	0.474413
146	C	0.965267	0.47197	0.423391
147	C	0.99685	0.49065	0.429715
148	C	0.016247	0.479017	0.448462
149	C	0.047335	0.497503	0.455534
150	C	0.060211	0.52848	0.444535
151	C	0.092916	0.546014	0.445088
152	C	0.112338	0.555899	0.598085
153	C	0.142857	0.572238	0.538434
154	C	0.146068	0.574065	0.341682
155	C	0.173916	0.589378	0.236564
156	C	0.200541	0.613288	0.30045
157	C	0.224094	0.62324	0.162976
158	C	0.214499	0.6064	0
159	S	0.178204	0.579268	0.009384
160	S	0.11168	0.555738	0.232105
161	C	0.041242	0.540784	0.42881
162	C	0.053262	0.573674	0.425815
163	O	0.078827	0.591928	0.472837
164	N	0.033455	0.583061	0.375771
165	C	0.002883	0.566252	0.380953
166	O	0.986768	0.577427	0.376862
167	C	0.990387	0.53373	0.397205
168	C	0.009715	0.522068	0.418128
169	C	0.959321	0.515256	0.388518
170	C	0.94639	0.484267	0.400343
171	C	0.913785	0.466736	0.383655
172	C	0.892369	0.457846	0.524725
173	C	0.862735	0.441487	0.449428
174	C	0.862097	0.43849	0.252566
175	C	0.836148	0.423483	0.129137
176	C	0.835053	0.424555	0.931338
177	C	0.805517	0.406894	0.85633
178	C	0.785193	0.392984	0
179	S	0.80077	0.400735	0.220018
180	S	0.897958	0.455713	0.162522
181	H	0.964902	0.407285	0.45683
182	H	0.061714	0.487608	0.467555
183	H	0.10516	0.552046	0.745906
184	H	0.161548	0.582113	0.636925
185	H	0.203097	0.623525	0.439378
186	H	0.24656	0.641665	0.184272
187	H	0.041809	0.605351	0.380329
188	H	0.945016	0.525136	0.370423
189	H	0.897498	0.4625	0.675173
190	H	0.842866	0.432449	0.538025
191	H	0.854519	0.437483	0.842214
192	H	0.799897	0.404766	0.705912
