data_C114H60N6O12S12_2023-05-11_21:35:57
#******************************************
#
# CIF file created by Zeo++
# Zeo++ is an open source package to
# analyze microporous materials
#
#*******************************************

_cell_length_a		58.1167   
_cell_length_b		58.4151   
_cell_length_c		7   
_cell_angle_alpha		90   
_cell_angle_beta		90   
_cell_angle_gamma		119.777   

_symmetry_space_group_name_H-M		'P1'
_symmetry_Int_Tables_number		1
_symmetry_cell_setting		Monoclinic

loop_
_symmetry_equiv_pos_as_xyz
'+x,+y,+z'

loop_
_atom_site_label
_atom_site_type_symbol
_atom_site_fract_x
_atom_site_fract_y
_atom_site_fract_z
1	C	0.360006	0.672248	0.999995
2	O	0.38339	0.676352	0.999991
3	C	0.338855	0.644823	0.999998
4	C	0.342949	0.624608	0
5	N	0.369125	0.629335	0
6	C	0.311812	0.639955	3e-06
7	O	0.292804	0.616317	5e-06
8	C	0.305327	0.661046	6e-06
9	C	0.280441	0.655956	5e-06
10	N	0.25986	0.629062	0
11	C	0.327495	0.688252	4e-06
12	O	0.322342	0.706491	7e-06
13	C	0.354974	0.694342	0.999999
14	C	0.374516	0.719162	0.999998
15	N	0.370603	0.741194	0
16	H	0.326758	0.604929	1e-06
17	H	0.2752	0.671064	8e-06
18	H	0.394271	0.722706	0.999997
19	C	0.639994	0.327752	0.999995
20	O	0.61661	0.323648	0.999991
21	C	0.661145	0.355177	0.999998
22	C	0.657051	0.375392	0
23	N	0.630875	0.370665	0
24	C	0.688188	0.360045	3e-06
25	O	0.707196	0.383683	5e-06
26	C	0.694673	0.338954	6e-06
27	C	0.719559	0.344044	5e-06
28	N	0.74014	0.370938	0
29	C	0.672505	0.311748	4e-06
30	O	0.677658	0.293509	7e-06
31	C	0.645026	0.305658	0.999999
32	C	0.625484	0.280838	0.999998
33	N	0.629397	0.258806	0
34	H	0.673242	0.395071	1e-06
35	H	0.7248	0.328936	8e-06
36	H	0.605729	0.277294	0.999997
37	O	0.511168	0.488963	0.043593
38	C	0.513014	0.499274	0.888006
39	C	0.527836	0.495708	0.731063
40	C	0.527036	0.50391	0.553201
41	C	0.541866	0.499823	0.401806
42	C	0.551321	0.514038	0.241034
43	C	0.56451	0.503515	0.126421
44	C	0.563629	0.482536	0.213144
45	C	0.575036	0.4681	0.130911
46	C	0.586907	0.470543	0.954528
47	C	0.595869	0.452045	0.926024
48	C	0.5907	0.435785	0.081506
49	C	0.598216	0.413347	0.093747
50	C	0.592844	0.397274	0.251552
51	S	0.603318	0.374755	0.221578
52	C	0.614909	0.386443	0
53	C	0.611189	0.406984	0.946679
54	S	0.575139	0.442884	0.258853
55	C	0.549137	0.478273	0.401603
56	C	0.509747	0.514942	0.514466
57	C	0.496689	0.521152	0.644903
58	C	0.480057	0.532273	0.591475
59	C	0.463973	0.536879	0.703054
60	C	0.451221	0.54827	0.592753
61	C	0.458965	0.55104	0.409075
62	C	0.449997	0.561744	0.262183
63	C	0.456315	0.563992	0.069485
64	C	0.444156	0.575661	0.959407
65	C	0.42873	0.582199	0.070264
66	C	0.412605	0.595436	0.993274
67	C	0.412355	0.601803	0.803623
68	S	0.393034	0.615974	0.765343
69	C	0.385091	0.613557	0
70	C	0.396592	0.602337	0.10792
71	S	0.429105	0.574242	0.303946
72	C	0.478289	0.540826	0.390395
73	C	0.500603	0.516413	0.849992
74	O	0.494752	0.525803	0.985137
75	H	0.539194	0.486389	0.77243
76	H	0.549768	0.53097	0.198333
77	H	0.573479	0.511968	0.990423
78	H	0.589141	0.484978	0.848091
79	H	0.605579	0.451067	0.79678
80	H	0.58329	0.397386	0.383874
81	H	0.617384	0.416836	0.809879
82	H	0.531361	0.45877	0.406523
83	H	0.562285	0.480541	0.520805
84	H	0.507511	0.517832	0.36348
85	H	0.460444	0.533076	0.854453
86	H	0.437536	0.553486	0.656858
87	H	0.46923	0.557489	0.008424
88	H	0.446877	0.57892	0.806891
89	H	0.422417	0.598982	0.683907
90	H	0.393731	0.599244	0.260579
91	H	0.47053	0.524154	0.290892
92	H	0.497636	0.556509	0.340822
93	O	0.510743	0.021938	0.043593
94	C	0.500394	0.013506	0.888006
95	C	0.503904	0.031768	0.731063
96	C	0.495682	0.02281	0.553201
97	C	0.499714	0.041598	0.401806
98	C	0.485416	0.036834	0.241034
99	C	0.495909	0.060401	0.126421
100	C	0.516953	0.080411	0.213144
101	C	0.53138	0.106107	0.130911
102	C	0.528877	0.115458	0.954528
103	C	0.547387	0.142769	0.926024
104	C	0.563718	0.153826	0.081506
105	C	0.586186	0.183624	0.093747
106	C	0.602331	0.194292	0.251552
107	S	0.624867	0.227106	0.221578
108	C	0.613093	0.226977	0
109	C	0.59251	0.202836	0.946679
110	S	0.556668	0.131311	0.258853
111	C	0.521294	0.07027	0.401603
112	C	0.484696	0.994665	0.514466
113	C	0.478526	0.97552	0.644903
114	C	0.467448	0.947939	0.591475
115	C	0.462901	0.927387	0.703054
116	C	0.451534	0.903389	0.592753
117	C	0.448722	0.908319	0.409075
118	C	0.438026	0.88876	0.262183
119	C	0.435744	0.892794	0.069485
120	C	0.424096	0.869108	0.959407
121	C	0.417608	0.847286	0.070264
122	C	0.404405	0.818102	0.993274
123	C	0.398021	0.811515	0.803623
124	S	0.383895	0.778228	0.765343
125	C	0.386356	0.77275	0
126	C	0.397557	0.795337	0.10792
127	S	0.425587	0.85558	0.303946
128	C	0.458878	0.93767	0.390395
129	C	0.483261	0.984123	0.849992
130	O	0.473871	0.968967	0.985137
131	H	0.513199	0.052321	0.77243
132	H	0.468441	0.018436	0.198333
133	H	0.487392	0.060889	0.990423
134	H	0.51439	0.103306	0.848091
135	H	0.548325	0.153382	0.79678
136	H	0.602261	0.184696	0.383874
137	H	0.582601	0.199177	0.809879
138	H	0.540933	0.07204	0.406523
139	H	0.51896	0.081064	0.520805
140	H	0.481807	0.989568	0.36348
141	H	0.46673	0.92767	0.854453
142	H	0.446364	0.884612	0.656858
143	H	0.442208	0.912089	0.008424
144	H	0.420815	0.868564	0.806891
145	H	0.400805	0.824312	0.683907
146	H	0.400671	0.795576	0.260579
147	H	0.475633	0.946564	0.290892
148	H	0.443063	0.941262	0.340822
149	O	0.977677	0.48869	0.043593
150	C	0.98618	0.486812	0.888006
151	C	0.967849	0.472115	0.731063
152	C	0.97687	0.472872	0.553201
153	C	0.958009	0.458169	0.401806
154	C	0.962851	0.448719	0.241034
155	C	0.939169	0.435675	0.126421
156	C	0.919007	0.436643	0.213144
157	C	0.893172	0.425384	0.130911
158	C	0.883805	0.41359	0.954528
159	C	0.856332	0.404777	0.926024
160	C	0.84517	0.40998	0.081506
161	C	0.815186	0.40262	0.093747
162	C	0.804414	0.408025	0.251552
163	S	0.771404	0.397729	0.221578
164	C	0.771586	0.386171	0
165	C	0.795889	0.389771	0.946679
166	S	0.867781	0.425395	0.258853
167	C	0.929158	0.451049	0.401603
168	C	0.005146	0.489985	0.514466
169	C	0.024373	0.502919	0.644903
170	C	0.052084	0.519379	0.591475
171	C	0.072715	0.535325	0.703054
172	C	0.096833	0.547932	0.592753
173	C	0.091902	0.540232	0.409075
174	C	0.111565	0.549086	0.262183
175	C	0.10753	0.542805	0.069485
176	C	0.131337	0.554822	0.959407
177	C	0.153251	0.570106	0.070264
178	C	0.182578	0.586053	0.993274
179	C	0.189213	0.586273	0.803623
180	S	0.22266	0.605389	0.765343
181	C	0.228142	0.613284	0
182	C	0.20544	0.601918	0.10792
183	S	0.144897	0.569769	0.303946
184	C	0.062421	0.521096	0.390395
185	C	0.015724	0.499055	0.849992
186	O	0.030966	0.504821	0.985137
187	H	0.947195	0.460881	0.77243
188	H	0.981379	0.450185	0.198333
189	H	0.938718	0.426733	0.990423
190	H	0.896057	0.411307	0.848091
191	H	0.845685	0.395142	0.79678
192	H	0.814038	0.417509	0.383874
193	H	0.799603	0.383578	0.809879
194	H	0.927294	0.468781	0.406523
195	H	0.918343	0.437987	0.520805
196	H	0.01027	0.492192	0.36348
197	H	0.072414	0.538845	0.854453
198	H	0.115688	0.561493	0.656858
199	H	0.088151	0.530014	0.008424
200	H	0.131897	0.552107	0.806891
201	H	0.176366	0.576297	0.683907
202	H	0.205186	0.604771	0.260579
203	H	0.053425	0.528872	0.290892
204	H	0.058889	0.50182	0.340822
