data_C108H42N12O18S12_2023-05-13_00:56:07
#******************************************
#
# CIF file created by Zeo++
# Zeo++ is an open source package to
# analyze microporous materials
#
#*******************************************

_cell_length_a		49.6029   
_cell_length_b		49.9013   
_cell_length_c		7   
_cell_angle_alpha		90   
_cell_angle_beta		90   
_cell_angle_gamma		119.739   

_symmetry_space_group_name_H-M		'P1'
_symmetry_Int_Tables_number		1
_symmetry_cell_setting		Monoclinic

loop_
_symmetry_equiv_pos_as_xyz
'+x,+y,+z'

loop_
_atom_site_label
_atom_site_type_symbol
_atom_site_fract_x
_atom_site_fract_y
_atom_site_fract_z
1	C	0.364579	0.673197	0.999995
2	O	0.391973	0.678	0.999991
3	C	0.339823	0.641106	0.999998
4	C	0.344637	0.617451	0
5	N	0.375302	0.622982	0
6	C	0.308142	0.635409	3e-06
7	O	0.285893	0.607749	5e-06
8	C	0.300526	0.66009	6e-06
9	C	0.271372	0.654134	5e-06
10	N	0.247283	0.622663	0
11	C	0.326473	0.691925	4e-06
12	O	0.32042	0.713268	7e-06
13	C	0.358663	0.699052	0.999999
14	C	0.381537	0.728095	0.999998
15	N	0.376933	0.753876	0
16	H	0.325685	0.594423	1e-06
17	H	0.265218	0.671812	8e-06
18	H	0.404679	0.732242	0.999997
19	C	0.635421	0.326803	0.999995
20	O	0.608027	0.322	0.999991
21	C	0.660177	0.358894	0.999998
22	C	0.655363	0.382549	0
23	N	0.624698	0.377018	0
24	C	0.691858	0.364591	3e-06
25	O	0.714107	0.392251	5e-06
26	C	0.699474	0.33991	6e-06
27	C	0.728628	0.345866	5e-06
28	N	0.752717	0.377337	0
29	C	0.673527	0.308075	4e-06
30	O	0.67958	0.286732	7e-06
31	C	0.641337	0.300948	0.999999
32	C	0.618463	0.271905	0.999998
33	N	0.623067	0.246124	0
34	H	0.674315	0.405577	1e-06
35	H	0.734782	0.328188	8e-06
36	H	0.595321	0.267758	0.999997
37	O	0.583868	0.568218	0.564928
38	C	0.555874	0.556524	0.539199
39	N	0.541441	0.573776	0.526542
40	C	0.510118	0.562957	0.543514
41	O	0.50079	0.580681	0.587158
42	C	0.489277	0.529046	0.516298
43	C	0.503242	0.510174	0.512145
44	C	0.535521	0.522737	0.525184
45	C	0.549181	0.504054	0.522741
46	C	0.53093	0.471942	0.507347
47	C	0.547282	0.454349	0.499292
48	C	0.557704	0.443611	0.647302
49	C	0.573198	0.427764	0.58029
50	C	0.574318	0.427186	0.3836
51	C	0.589763	0.411486	0.264908
52	C	0.603864	0.396493	0.347987
53	S	0.618464	0.381897	0.181078
54	C	0.605978	0.395481	0
55	C	0.59103	0.410837	0.060983
56	S	0.556859	0.445796	0.281572
57	C	0.498421	0.458688	0.496533
58	C	0.47734	0.424535	0.488707
59	O	0.485661	0.405803	0.526152
60	N	0.446766	0.414462	0.445505
61	C	0.431996	0.431381	0.459741
62	O	0.403676	0.419364	0.459888
63	C	0.452266	0.465086	0.480315
64	C	0.484516	0.47762	0.495745
65	C	0.438625	0.483789	0.481288
66	C	0.45686	0.515884	0.498131
67	C	0.440698	0.533668	0.491185
68	C	0.426722	0.540859	0.637299
69	C	0.412853	0.558328	0.571696
70	C	0.416467	0.56363	0.377604
71	C	0.403882	0.582182	0.260996
72	C	0.387777	0.595178	0.343509
73	S	0.377179	0.613761	0.179191
74	C	0.394022	0.604519	0
75	C	0.407522	0.587721	0.059728
76	S	0.436378	0.547466	0.276185
77	H	0.555156	0.59662	0.551555
78	H	0.574402	0.514698	0.531067
79	H	0.554161	0.446585	0.796774
80	H	0.582785	0.417376	0.674151
81	H	0.606509	0.393153	0.497881
82	H	0.581499	0.421032	0.965041
83	H	0.432719	0.391287	0.446812
84	H	0.41348	0.473221	0.466818
85	H	0.426658	0.534287	0.784849
86	H	0.401013	0.566467	0.664783
87	H	0.381518	0.594915	0.491618
88	H	0.419362	0.579827	0.96472
89	O	0.430787	0.015129	0.564928
90	C	0.442668	0.999008	0.539199
91	N	0.425433	0.967537	0.526542
92	C	0.436454	0.947246	0.543514
93	O	0.418718	0.920367	0.587158
94	C	0.470589	0.960317	0.516298
95	C	0.489452	0.992935	0.512145
96	C	0.476677	0.012439	0.525184
97	C	0.495351	0.044567	0.522741
98	C	0.527667	0.058416	0.507347
99	C	0.545234	0.092128	0.499292
100	C	0.555954	0.113142	0.647302
101	C	0.571774	0.144268	0.58029
102	C	0.572348	0.145953	0.3836
103	C	0.588019	0.176882	0.264908
104	C	0.602989	0.205776	0.347987
105	S	0.617558	0.234771	0.181078
106	C	0.603993	0.208879	0
107	C	0.588664	0.178784	0.060983
108	S	0.553766	0.110131	0.281572
109	C	0.541138	0.03937	0.496533
110	C	0.575516	0.052443	0.488707
111	O	0.594268	0.079327	0.526152
112	N	0.585784	0.032152	0.445505
113	C	0.568885	0.000678	0.459741
114	O	0.581092	0.984556	0.459888
115	C	0.53496	0.987247	0.480315
116	C	0.522214	0.006752	0.495745
117	C	0.516266	0.955119	0.481288
118	C	0.483966	0.94127	0.498131
119	C	0.466207	0.907557	0.491185
120	C	0.459064	0.886547	0.637299
121	C	0.441609	0.85542	0.571696
122	C	0.436271	0.853729	0.377604
123	C	0.417722	0.822797	0.260996
124	C	0.404766	0.793903	0.343509
125	S	0.386176	0.76491	0.179191
126	C	0.395361	0.790802	0
127	C	0.412144	0.820896	0.059728
128	S	0.452385	0.889548	0.276185
129	H	0.402441	0.958411	0.551555
130	H	0.484539	0.058984	0.531067
131	H	0.552989	0.106672	0.796774
132	H	0.582146	0.164106	0.674151
133	H	0.606326	0.211721	0.497881
134	H	0.578484	0.159194	0.965041
135	H	0.609112	0.041279	0.446812
136	H	0.527001	0.940702	0.466818
137	H	0.465659	0.893021	0.784849
138	H	0.433505	0.835585	0.664783
139	H	0.405063	0.787959	0.491618
140	H	0.420004	0.840487	0.96472
141	O	0.984862	0.416174	0.564928
142	C	0.000976	0.44399	0.539199
143	N	0.032644	0.458208	0.526542
144	C	0.052946	0.489319	0.543514
145	O	0.080009	0.498474	0.587158
146	C	0.039652	0.510159	0.516298
147	C	0.006824	0.496413	0.512145
148	C	0.98732	0.464345	0.525184
149	C	0.954986	0.450901	0.522741
150	C	0.94092	0.469163	0.507347
151	C	0.907002	0.453045	0.499292
152	C	0.88586	0.442769	0.647302
153	C	0.854546	0.42749	0.58029
154	C	0.852852	0.426383	0.3836
155	C	0.821736	0.411153	0.264908
156	C	0.792665	0.397252	0.347987
157	S	0.763496	0.382854	0.181078
158	C	0.789547	0.395162	0
159	C	0.819824	0.4099	0.060983
160	S	0.888893	0.443595	0.281572
161	C	0.95996	0.501464	0.496533
162	C	0.946662	0.522543	0.488707
163	O	0.919589	0.514391	0.526152
164	N	0.966968	0.552907	0.445505
165	C	0.998637	0.567462	0.459741
166	O	0.01475	0.595602	0.459888
167	C	0.012292	0.547189	0.480315
168	C	0.992788	0.51515	0.495745
169	C	0.044627	0.560614	0.481288
170	C	0.058692	0.542368	0.498131
171	C	0.092613	0.558297	0.491185
172	C	0.113732	0.572115	0.637299
173	C	0.145056	0.585774	0.571696
174	C	0.14678	0.582163	0.377604
175	C	0.177914	0.594542	0.260996
176	C	0.206974	0.610441	0.343509
177	S	0.236163	0.620851	0.179191
178	C	0.210135	0.6042	0
179	C	0.179852	0.590905	0.059728
180	S	0.110755	0.562508	0.276185
181	H	0.041922	0.444491	0.551555
182	H	0.940577	0.42584	0.531067
183	H	0.892368	0.446265	0.796774
184	H	0.834587	0.41804	0.674151
185	H	0.786683	0.394647	0.497881
186	H	0.839534	0.419296	0.965041
187	H	0.957687	0.566956	0.446812
188	H	0.059036	0.585599	0.466818
189	H	0.107201	0.572214	0.784849
190	H	0.165	0.597469	0.664783
191	H	0.212937	0.616647	0.491618
192	H	0.160153	0.579208	0.96472
