data_C138H54N6O18S18_2023-05-12_00:15:36
#******************************************
#
# CIF file created by Zeo++
# Zeo++ is an open source package to
# analyze microporous materials
#
#*******************************************

_cell_length_a		67.8922   
_cell_length_b		68.1906   
_cell_length_c		7   
_cell_angle_alpha		90   
_cell_angle_beta		90   
_cell_angle_gamma		119.809   

_symmetry_space_group_name_H-M		'P1'
_symmetry_Int_Tables_number		1
_symmetry_cell_setting		Monoclinic

loop_
_symmetry_equiv_pos_as_xyz
'+x,+y,+z'

loop_
_atom_site_label
_atom_site_type_symbol
_atom_site_fract_x
_atom_site_fract_y
_atom_site_fract_z
1	C	0.356169	0.671449	0.999995
2	O	0.376188	0.674966	0.999991
3	C	0.338048	0.647948	0.999998
4	C	0.341541	0.630626	0
5	N	0.363951	0.634677	0
6	C	0.314896	0.643777	3e-06
7	O	0.298612	0.623521	5e-06
8	C	0.309357	0.66185	6e-06
9	C	0.288051	0.657489	5e-06
10	N	0.270419	0.634443	0
11	C	0.328348	0.685164	4e-06
12	O	0.323947	0.700793	7e-06
13	C	0.351873	0.690382	0.999999
14	C	0.368616	0.711651	0.999998
15	N	0.365278	0.73053	0
16	H	0.327671	0.613762	1e-06
17	H	0.283573	0.670435	8e-06
18	H	0.385528	0.714688	0.999997
19	C	0.643831	0.328551	0.999995
20	O	0.623812	0.325034	0.999991
21	C	0.661952	0.352052	0.999998
22	C	0.658459	0.369374	0
23	N	0.636049	0.365323	0
24	C	0.685104	0.356223	3e-06
25	O	0.701388	0.376479	5e-06
26	C	0.690643	0.33815	6e-06
27	C	0.711949	0.342511	5e-06
28	N	0.729581	0.365557	0
29	C	0.671652	0.314836	4e-06
30	O	0.676053	0.299207	7e-06
31	C	0.648127	0.309618	0.999999
32	C	0.631384	0.288349	0.999998
33	N	0.634722	0.26947	0
34	H	0.672329	0.386238	1e-06
35	H	0.716427	0.329565	8e-06
36	H	0.614472	0.285312	0.999997
37	O	0.488467	0.485569	0.732721
38	C	0.49747	0.490301	0.889892
39	C	0.507092	0.476385	0.97589
40	O	0.505439	0.459979	0.890947
41	C	0.518444	0.483123	0.163775
42	C	0.527842	0.470552	0.240958
43	C	0.538905	0.4762	0.417811
44	C	0.548774	0.4629	0.495014
45	C	0.55884	0.452515	0.397111
46	C	0.566285	0.440716	0.519484
47	C	0.5783	0.427245	0.450823
48	C	0.58561	0.416052	0.569872
49	C	0.595717	0.405237	0.466417
50	C	0.59573	0.408533	0.272126
51	C	0.605517	0.398562	0.12008
52	C	0.605277	0.402041	0.925939
53	S	0.617059	0.389008	0.797707
54	C	0.622391	0.378844	0
55	C	0.615567	0.384973	0.163036
56	S	0.583798	0.424726	0.216767
57	C	0.561631	0.442462	0.708075
58	S	0.54822	0.457851	0.735996
59	C	0.540378	0.494827	0.514747
60	C	0.530825	0.507264	0.437639
61	C	0.519669	0.501684	0.260658
62	C	0.5098	0.514742	0.180144
63	C	0.510518	0.532947	0.279617
64	C	0.501034	0.545454	0.20334
65	C	0.490716	0.540193	0.023727
66	C	0.480872	0.553332	0.945904
67	C	0.464853	0.557654	0.027062
68	C	0.459636	0.57158	0.909487
69	C	0.441982	0.579426	0.959957
70	C	0.428966	0.573257	0.12348
71	C	0.414352	0.582734	0.131139
72	C	0.416869	0.595944	0.973914
73	C	0.403222	0.608801	0.941472
74	C	0.406325	0.62224	0.784111
75	S	0.389126	0.634014	0.789826
76	C	0.377609	0.621156	0
77	C	0.386392	0.608208	0.067813
78	S	0.436597	0.596635	0.818637
79	C	0.472081	0.577561	0.742877
80	S	0.489646	0.566343	0.728317
81	C	0.489789	0.522059	0.923084
82	C	0.49916	0.509509	0.000781
83	C	0.521304	0.53925	0.469867
84	O	0.520868	0.554122	0.564023
85	C	0.532867	0.526721	0.547037
86	O	0.543596	0.5327	0.696264
87	H	0.526273	0.456077	0.16158
88	H	0.56091	0.453471	0.243257
89	H	0.583936	0.415416	0.723865
90	H	0.602475	0.395539	0.5338
91	H	0.598809	0.411522	0.850923
92	H	0.617654	0.379972	0.304924
93	H	0.565223	0.435435	0.832823
94	H	0.549139	0.499998	0.651838
95	H	0.501964	0.559558	0.284342
96	H	0.457234	0.550999	0.164944
97	H	0.429573	0.562426	0.233511
98	H	0.402753	0.579862	0.247725
99	H	0.417817	0.62595	0.665201
100	H	0.381006	0.598815	0.200192
101	H	0.471839	0.587928	0.627024
102	H	0.481562	0.51746	0.783536
103	O	0.514276	0.002798	0.732721
104	C	0.509497	0.007031	0.889892
105	C	0.52341	0.030455	0.97589
106	O	0.539863	0.045155	0.890947
107	C	0.516612	0.035023	0.163775
108	C	0.529178	0.056885	0.240958
109	C	0.523473	0.062252	0.417811
110	C	0.536769	0.085308	0.495014
111	C	0.54714	0.105656	0.397111
112	C	0.55894	0.124808	0.519484
113	C	0.572398	0.150166	0.450823
114	C	0.58359	0.16858	0.569872
115	C	0.594393	0.189398	0.466417
116	C	0.591089	0.186127	0.272126
117	C	0.601047	0.205785	0.12008
118	C	0.597561	0.202082	0.925939
119	S	0.610581	0.226772	0.797707
120	C	0.620749	0.242195	0
121	C	0.614631	0.229309	0.163036
122	S	0.574902	0.158139	0.216767
123	C	0.557207	0.118444	0.708075
124	S	0.541832	0.089788	0.735996
125	C	0.504795	0.045161	0.514747
126	C	0.492364	0.023279	0.437639
127	C	0.498001	0.017751	0.260658
128	C	0.484948	0.994936	0.180144
129	C	0.466695	0.977515	0.279617
130	C	0.454194	0.955632	0.20334
131	C	0.459508	0.950619	0.023727
132	C	0.446374	0.927748	0.945904
133	C	0.442103	0.907525	0.027062
134	C	0.428163	0.888468	0.909487
135	C	0.420365	0.863109	0.959957
136	C	0.4266	0.856321	0.12348
137	C	0.417155	0.832358	0.131139
138	C	0.403903	0.8217	0.973914
139	C	0.391067	0.79533	0.941472
140	C	0.377582	0.785027	0.784111
141	S	0.365846	0.756207	0.789826
142	C	0.37878	0.757572	0
143	C	0.391726	0.779198	0.067813
144	S	0.403134	0.840615	0.818637
145	C	0.422119	0.894877	0.742877
146	S	0.433297	0.923507	0.728317
147	C	0.47769	0.967762	0.923084
148	C	0.490235	0.989576	0.000781
149	C	0.460336	0.981955	0.469867
150	O	0.445428	0.966707	0.564023
151	C	0.472851	0.005926	0.547037
152	O	0.466816	0.010631	0.696264
153	H	0.543695	0.069746	0.16158
154	H	0.546174	0.10676	0.243257
155	H	0.584234	0.16755	0.723865
156	H	0.604089	0.205774	0.5338
157	H	0.588081	0.186209	0.850923
158	H	0.619636	0.236364	0.304924
159	H	0.564237	0.129012	0.832823
160	H	0.499578	0.048716	0.651838
161	H	0.440051	0.942505	0.284342
162	H	0.448804	0.906584	0.164944
163	H	0.437455	0.867713	0.233511
164	H	0.420079	0.823693	0.247725
165	H	0.373819	0.792751	0.665201
166	H	0.401162	0.783201	0.200192
167	H	0.411727	0.884309	0.627024
168	H	0.482332	0.964168	0.783536
169	O	0.996905	0.511283	0.732721
170	C	0.99268	0.502318	0.889892
171	C	0.969145	0.492809	0.97589
172	O	0.954345	0.494515	0.890947
173	C	0.964592	0.481503	0.163775
174	C	0.942628	0.472213	0.240958
175	C	0.937269	0.461197	0.417811
176	C	0.914105	0.451442	0.495014
177	C	0.893667	0.441478	0.397111
178	C	0.874423	0.434126	0.519484
179	C	0.84895	0.422238	0.450823
180	C	0.830448	0.415017	0.569872
181	C	0.809537	0.405015	0.466417
182	C	0.812829	0.40499	0.272126
183	C	0.793084	0.395302	0.12008
184	C	0.79681	0.395527	0.925939
185	S	0.772008	0.38387	0.797707
186	C	0.756508	0.378611	0
187	C	0.76945	0.385368	0.163036
188	S	0.840948	0.416785	0.216767
189	C	0.880809	0.438744	0.708075
190	S	0.909595	0.452011	0.735996
191	C	0.954475	0.459662	0.514747
192	C	0.976458	0.469107	0.437639
193	C	0.981978	0.480215	0.260658
194	C	0.0049	0.489972	0.180144
195	C	0.022434	0.489188	0.279617
196	C	0.04442	0.498564	0.20334
197	C	0.049424	0.508838	0.023727
198	C	0.072402	0.518569	0.945904
199	C	0.092691	0.53447	0.027062
200	C	0.111849	0.539602	0.909487
201	C	0.137301	0.557114	0.959957
202	C	0.144082	0.570072	0.12348
203	C	0.16814	0.584558	0.131139
204	C	0.178875	0.582006	0.973914
205	C	0.205359	0.595518	0.941472
206	C	0.21574	0.592382	0.784111
207	S	0.244676	0.609429	0.789826
208	C	0.243258	0.620922	0
209	C	0.221529	0.612244	0.067813
210	S	0.159917	0.5624	0.818637
211	C	0.105447	0.527211	0.742877
212	S	0.076704	0.5098	0.728317
213	C	0.032168	0.509828	0.923084
214	C	0.010253	0.500565	0.000781
215	C	0.018008	0.478445	0.469867
216	O	0.033351	0.478821	0.564023
217	C	0.993929	0.467003	0.547037
218	O	0.989235	0.456318	0.696264
219	H	0.929679	0.473827	0.16158
220	H	0.892564	0.439418	0.243257
221	H	0.831478	0.416684	0.723865
222	H	0.793083	0.398337	0.5338
223	H	0.812758	0.401919	0.850923
224	H	0.762358	0.383313	0.304924
225	H	0.870188	0.435202	0.832823
226	H	0.950931	0.450936	0.651838
227	H	0.057633	0.497586	0.284342
228	H	0.093609	0.542067	0.164944
229	H	0.13262	0.569511	0.233511
230	H	0.176815	0.596095	0.247725
231	H	0.208011	0.580949	0.665201
232	H	0.217479	0.617633	0.200192
233	H	0.116081	0.527412	0.627024
234	H	0.035754	0.518021	0.783536
