data_C60H24N18O12_2023-05-30_18:46:55
#******************************************
#
# CIF file created by Zeo++
# Zeo++ is an open source package to
# analyze microporous materials
#
#*******************************************

_cell_length_a		34.6571   
_cell_length_b		34.9558   
_cell_length_c		7   
_cell_angle_alpha		90   
_cell_angle_beta		90   
_cell_angle_gamma		119.627   

_symmetry_space_group_name_H-M		'P1'
_symmetry_Int_Tables_number		1
_symmetry_cell_setting		Monoclinic

loop_
_symmetry_equiv_pos_as_xyz
'+x,+y,+z'

loop_
_atom_site_label
_atom_site_type_symbol
_atom_site_fract_x
_atom_site_fract_y
_atom_site_fract_z
1	C	0.378032	0.675979	0.999995
2	O	0.417224	0.682827	0.999991
3	C	0.342703	0.630217	0.999998
4	C	0.349671	0.596487	0
5	N	0.393541	0.604374	0
6	C	0.29738	0.622095	3e-06
7	O	0.265625	0.582652	5e-06
8	C	0.286398	0.657288	6e-06
9	C	0.244692	0.648795	5e-06
10	N	0.210316	0.603919	0
11	C	0.323433	0.702685	4e-06
12	O	0.3147	0.733119	7e-06
13	C	0.369482	0.712847	0.999999
14	C	0.402126	0.754261	0.999998
15	N	0.395453	0.791024	0
16	H	0.32262	0.56365	1e-06
17	H	0.235827	0.674004	8e-06
18	H	0.435235	0.760175	0.999997
19	C	0.621968	0.324021	0.999995
20	O	0.582776	0.317173	0.999991
21	C	0.657297	0.369783	0.999998
22	C	0.650329	0.403513	0
23	N	0.606459	0.395626	0
24	C	0.70262	0.377905	3e-06
25	O	0.734375	0.417348	5e-06
26	C	0.713602	0.342712	6e-06
27	C	0.755308	0.351205	5e-06
28	N	0.789684	0.396081	0
29	C	0.676567	0.297315	4e-06
30	O	0.6853	0.266881	7e-06
31	C	0.630518	0.287153	0.999999
32	C	0.597874	0.245739	0.999998
33	N	0.604547	0.208976	0
34	H	0.67738	0.43635	1e-06
35	H	0.764173	0.325996	8e-06
36	H	0.564765	0.239825	0.999997
37	O	0.496913	0.503027	0.82613
38	C	0.49828	0.501686	0.651763
39	C	0.477712	0.521852	0.534896
40	C	0.478721	0.520861	0.343242
41	C	0.457599	0.541569	0.226508
42	N	0.460601	0.538628	0.034084
43	C	0.441821	0.55704	0.92383
44	C	0.420395	0.578046	0
45	N	0.416958	0.581417	0.190448
46	C	0.435802	0.56294	0.30014
47	C	0.500849	0.499167	0.251472
48	C	0.521053	0.47936	0.338689
49	C	0.542086	0.45874	0.224122
50	N	0.539387	0.461386	0.030694
51	C	0.558291	0.442851	0.92206
52	C	0.579605	0.421954	0
53	N	0.582776	0.418844	0.190529
54	C	0.563794	0.437456	0.299275
55	C	0.520892	0.479517	0.551419
56	O	0.537993	0.462752	0.648126
57	H	0.462462	0.536805	0.618826
58	H	0.444751	0.554169	0.770907
59	H	0.432268	0.566405	0.451999
60	H	0.500287	0.49972	0.095571
61	H	0.555548	0.44554	0.768911
62	H	0.567297	0.434022	0.451205
63	O	0.496519	0.99372	0.82613
64	C	0.497855	0.9964	0.651763
65	C	0.477746	0.956069	0.534896
66	C	0.478734	0.95805	0.343242
67	C	0.458083	0.916632	0.226508
68	N	0.461017	0.922518	0.034084
69	C	0.442656	0.885693	0.92383
70	C	0.421708	0.84368	0
71	N	0.418346	0.83694	0.190448
72	C	0.436772	0.873893	0.30014
73	C	0.500367	0.001438	0.251472
74	C	0.52012	0.041053	0.338689
75	C	0.540683	0.082295	0.224122
76	N	0.538044	0.077003	0.030694
77	C	0.556527	0.114071	0.92206
78	C	0.577366	0.155866	0
79	N	0.580467	0.162084	0.190529
80	C	0.561907	0.124861	0.299275
81	C	0.519963	0.04074	0.551419
82	O	0.536681	0.07427	0.648126
83	H	0.462835	0.926165	0.618826
84	H	0.445519	0.891436	0.770907
85	H	0.433316	0.866962	0.451999
86	H	0.499816	0.000334	0.095571
87	H	0.553846	0.108693	0.768911
88	H	0.565331	0.13173	0.451205
89	O	0.005878	0.502572	0.82613
90	C	0.003175	0.501231	0.651763
91	C	0.043853	0.521397	0.534896
92	C	0.041855	0.520407	0.343242
93	C	0.083629	0.541116	0.226508
94	N	0.077693	0.538173	0.034084
95	C	0.114834	0.556585	0.92383
96	C	0.157208	0.577591	0
97	N	0.164006	0.580961	0.190448
98	C	0.126736	0.562486	0.30014
99	C	0.998094	0.498712	0.251472
100	C	0.958138	0.478905	0.338689
101	C	0.916542	0.458283	0.224122
102	N	0.92188	0.460929	0.030694
103	C	0.884493	0.442396	0.92206
104	C	0.842339	0.421499	0
105	N	0.836067	0.418389	0.190529
106	C	0.87361	0.437001	0.299275
107	C	0.958454	0.479062	0.551419
108	O	0.924636	0.462296	0.648126
109	H	0.074014	0.536348	0.618826
110	H	0.109041	0.553713	0.770907
111	H	0.133726	0.565951	0.451999
112	H	0.999208	0.499264	0.095571
113	H	0.889917	0.445085	0.768911
114	H	0.866682	0.433566	0.451205
