data_C60H24N6O12S6_2023-05-27_12:16:13
#******************************************
#
# CIF file created by Zeo++
# Zeo++ is an open source package to
# analyze microporous materials
#
#*******************************************

_cell_length_a		32.7854   
_cell_length_b		33.0841   
_cell_length_c		7   
_cell_angle_alpha		90   
_cell_angle_beta		90   
_cell_angle_gamma		119.606   

_symmetry_space_group_name_H-M		'P1'
_symmetry_Int_Tables_number		1
_symmetry_cell_setting		Monoclinic

loop_
_symmetry_equiv_pos_as_xyz
'+x,+y,+z'

loop_
_atom_site_label
_atom_site_type_symbol
_atom_site_fract_x
_atom_site_fract_y
_atom_site_fract_z
1	C	0.38058	0.676504	0.999995
2	O	0.422006	0.683738	0.999991
3	C	0.343255	0.628163	0.999998
4	C	0.350635	0.592532	0
5	N	0.397006	0.600864	0
6	C	0.295347	0.619583	3e-06
7	O	0.261797	0.577918	5e-06
8	C	0.283723	0.65676	6e-06
9	C	0.239639	0.647788	5e-06
10	N	0.203322	0.600383	0
11	C	0.322852	0.704714	4e-06
12	O	0.313606	0.736864	7e-06
13	C	0.371525	0.715449	0.999999
14	C	0.406014	0.759198	0.999998
15	N	0.398943	0.798032	0
16	H	0.322055	0.557844	1e-06
17	H	0.230257	0.674417	8e-06
18	H	0.44101	0.765444	0.999997
19	C	0.61942	0.323496	0.999995
20	O	0.577994	0.316262	0.999991
21	C	0.656745	0.371837	0.999998
22	C	0.649365	0.407468	0
23	N	0.602994	0.399136	0
24	C	0.704653	0.380417	3e-06
25	O	0.738203	0.422082	5e-06
26	C	0.716277	0.34324	6e-06
27	C	0.760361	0.352212	5e-06
28	N	0.796678	0.399617	0
29	C	0.677148	0.295286	4e-06
30	O	0.686394	0.263136	7e-06
31	C	0.628475	0.284551	0.999999
32	C	0.593986	0.240802	0.999998
33	N	0.601057	0.201968	0
34	H	0.677945	0.442156	1e-06
35	H	0.769743	0.325583	8e-06
36	H	0.55899	0.234556	0.999997
37	O	0.503672	0.496404	0.80318
38	C	0.499659	0.49583	0.629391
39	C	0.516165	0.470011	0.509872
40	C	0.514817	0.471659	0.318371
41	C	0.53213	0.446187	0.211948
42	C	0.568107	0.462822	0.078679
43	C	0.574595	0.426948	0
44	C	0.543889	0.38377	0.0705
45	S	0.5065	0.386497	0.233563
46	C	0.498158	0.500104	0.225085
47	C	0.480851	0.523929	0.317527
48	C	0.465234	0.550473	0.211279
49	C	0.42992	0.535727	0.075555
50	C	0.425405	0.573052	0
51	C	0.456828	0.61536	0.075759
52	S	0.492465	0.610013	0.240077
53	C	0.477559	0.521301	0.529945
54	O	0.457716	0.537735	0.623359
55	H	0.529454	0.450588	0.587765
56	H	0.588847	0.49927	0.04126
57	H	0.541252	0.350759	0.034728
58	H	0.500443	0.501465	0.069634
59	H	0.408222	0.499642	0.034556
60	H	0.460834	0.64911	0.043786
61	O	0.503096	0.006952	0.80318
62	C	0.503705	0.003561	0.629391
63	C	0.529526	0.045468	0.509872
64	C	0.527879	0.042502	0.318371
65	C	0.553346	0.084862	0.211948
66	C	0.536341	0.103871	0.078679
67	C	0.572348	0.145865	0
68	C	0.615991	0.158392	0.0705
69	S	0.613545	0.11878	0.233563
70	C	0.49942	0.997838	0.225085
71	C	0.47561	0.957119	0.317527
72	C	0.449053	0.91537	0.211279
73	C	0.464155	0.895142	0.075555
74	C	0.426673	0.853656	0
75	C	0.383899	0.8427	0.075759
76	S	0.388991	0.88318	0.240077
77	C	0.478278	0.956478	0.529945
78	O	0.461916	0.920586	0.623359
79	H	0.548943	0.077855	0.587765
80	H	0.499542	0.088184	0.04126
81	H	0.649192	0.188539	0.034728
82	H	0.498034	0.998744	0.069634
83	H	0.500597	0.909524	0.034556
84	H	0.349944	0.81317	0.043786
85	O	0.992503	0.495923	0.80318
86	C	0.995907	0.499889	0.629391
87	C	0.95358	0.4838	0.509872
88	C	0.956575	0.485118	0.318371
89	C	0.913795	0.468231	0.211948
90	C	0.894823	0.432587	0.078679
91	C	0.852328	0.426467	0
92	C	0.839391	0.457118	0.0705
93	S	0.879226	0.494002	0.233563
94	C	0.001693	0.501337	0.225085
95	C	0.04281	0.518231	0.317527
96	C	0.084984	0.533437	0.211279
97	C	0.105197	0.568411	0.075555
98	C	0.147193	0.572572	0
99	C	0.158543	0.54122	0.075759
100	S	0.117815	0.506086	0.240077
101	C	0.043434	0.521501	0.529945
102	O	0.079639	0.540958	0.623359
103	H	0.920874	0.470837	0.587765
104	H	0.910882	0.411826	0.04126
105	H	0.808827	0.459982	0.034728
106	H	0.000793	0.49907	0.069634
107	H	0.090452	0.590114	0.034556
108	H	0.188493	0.536999	0.043786
