data_C84H36N6O12S12_2023-05-13_03:46:20
#******************************************
#
# CIF file created by Zeo++
# Zeo++ is an open source package to
# analyze microporous materials
#
#*******************************************

_cell_length_a		43.8581   
_cell_length_b		44.1566   
_cell_length_c		7   
_cell_angle_alpha		90   
_cell_angle_beta		90   
_cell_angle_gamma		119.705   

_symmetry_space_group_name_H-M		'P1'
_symmetry_Int_Tables_number		1
_symmetry_cell_setting		Monoclinic

loop_
_symmetry_equiv_pos_as_xyz
'+x,+y,+z'

loop_
_atom_site_label
_atom_site_type_symbol
_atom_site_fract_x
_atom_site_fract_y
_atom_site_fract_z
1	C	0.368666	0.674044	0.999995
2	O	0.399645	0.67947	0.999991
3	C	0.340692	0.63779	0.999998
4	C	0.346156	0.611067	0
5	N	0.380833	0.617316	0
6	C	0.304867	0.631355	3e-06
7	O	0.279725	0.600107	5e-06
8	C	0.296233	0.659237	6e-06
9	C	0.263266	0.652508	5e-06
10	N	0.236046	0.616955	0
11	C	0.325555	0.695202	4e-06
12	O	0.318692	0.719313	7e-06
13	C	0.361956	0.703253	0.999999
14	C	0.387804	0.736063	0.999998
15	N	0.382576	0.765188	0
16	H	0.324739	0.585052	1e-06
17	H	0.256292	0.672479	8e-06
18	H	0.413974	0.740748	0.999997
19	C	0.631334	0.325956	0.999995
20	O	0.600355	0.32053	0.999991
21	C	0.659308	0.36221	0.999998
22	C	0.653844	0.388933	0
23	N	0.619167	0.382684	0
24	C	0.695133	0.368645	3e-06
25	O	0.720275	0.399893	5e-06
26	C	0.703767	0.340763	6e-06
27	C	0.736734	0.347492	5e-06
28	N	0.763954	0.383045	0
29	C	0.674445	0.304798	4e-06
30	O	0.681308	0.280687	7e-06
31	C	0.638044	0.296747	0.999999
32	C	0.612196	0.263937	0.999998
33	N	0.617424	0.234812	0
34	H	0.675261	0.414948	1e-06
35	H	0.743708	0.327521	8e-06
36	H	0.586026	0.259252	0.999997
37	O	0.51017	0.489988	0.019144
38	C	0.504705	0.493637	0.851663
39	C	0.526207	0.490495	0.699471
40	C	0.520276	0.494184	0.515094
41	C	0.54255	0.491222	0.374905
42	C	0.56333	0.515288	0.238595
43	C	0.581465	0.503087	0.120193
44	C	0.57412	0.469638	0.165432
45	C	0.587657	0.449071	0.075686
46	C	0.5796	0.415215	0.117935
47	C	0.59798	0.403542	0
48	C	0.619624	0.427996	0.870307
49	S	0.617732	0.465559	0.891515
50	S	0.544966	0.453674	0.35252
51	C	0.492743	0.501906	0.462429
52	C	0.471582	0.505904	0.58642
53	C	0.444957	0.513271	0.52137
54	C	0.410645	0.499291	0.583726
55	C	0.391617	0.513097	0.486692
56	C	0.411533	0.537898	0.351475
57	C	0.400939	0.557306	0.226839
58	C	0.42139	0.583367	0.097568
59	C	0.40202	0.596458	0
60	C	0.367487	0.580714	0.053707
61	S	0.358342	0.549661	0.224056
62	S	0.453341	0.543969	0.346643
63	C	0.475815	0.501495	0.794618
64	O	0.457325	0.503922	0.917801
65	H	0.546654	0.485295	0.747975
66	H	0.565715	0.540824	0.224226
67	H	0.59907	0.518552	0.006407
68	H	0.56132	0.39949	0.228604
69	H	0.636424	0.425852	0.764547
70	H	0.489633	0.503912	0.309318
71	H	0.399409	0.479854	0.695936
72	H	0.364429	0.50497	0.51774
73	H	0.449048	0.592671	0.074181
74	H	0.347171	0.585744	0.002324
75	O	0.509625	0.019845	0.019144
76	C	0.505994	0.010804	0.851663
77	C	0.50902	0.035222	0.699471
78	C	0.505352	0.02568	0.515094
79	C	0.508194	0.050683	0.374905
80	C	0.483912	0.047339	0.238595
81	C	0.496052	0.077426	0.120193
82	C	0.529673	0.103403	0.165432
83	C	0.550239	0.137254	0.075686
84	C	0.584272	0.16293	0.117935
85	C	0.595881	0.192735	0
86	C	0.571205	0.189861	0.870307
87	S	0.533509	0.150647	0.891515
88	S	0.545872	0.090402	0.35252
89	C	0.497765	0.990739	0.462429
90	C	0.493877	0.965809	0.58642
91	C	0.48664	0.932119	0.52137
92	C	0.500877	0.912037	0.583726
93	C	0.48713	0.879469	0.486692
94	C	0.462117	0.874538	0.351475
95	C	0.442696	0.844753	0.226839
96	C	0.416415	0.839099	0.097568
97	C	0.403389	0.806905	0
98	C	0.419397	0.788356	0.053707
99	S	0.450624	0.810169	0.224056
100	S	0.455774	0.909905	0.346643
101	C	0.498277	0.974383	0.794618
102	O	0.495951	0.953661	0.917801
103	H	0.514119	0.060639	0.747975
104	H	0.458264	0.024316	0.224226
105	H	0.480423	0.079487	0.006407
106	H	0.600166	0.160458	0.228604
107	H	0.573257	0.20863	0.764547
108	H	0.495769	0.985665	0.309318
109	H	0.520455	0.920231	0.695936
110	H	0.49545	0.860622	0.51774
111	H	0.406911	0.857241	0.074181
112	H	0.414469	0.763238	0.002324
113	O	0.97966	0.489627	0.019144
114	C	0.988756	0.495018	0.851663
115	C	0.964227	0.473743	0.699471
116	C	0.973827	0.479595	0.515094
117	C	0.948711	0.457555	0.374905
118	C	0.952213	0.436833	0.238595
119	C	0.921938	0.418946	0.120193
120	C	0.895662	0.426418	0.165432
121	C	0.861559	0.413135	0.075686
122	C	0.835583	0.421314	0.117935
123	C	0.805594	0.403182	0
124	C	0.808627	0.381603	0.870307
125	S	0.848215	0.383254	0.891515
126	S	0.908617	0.455384	0.35252
127	C	0.008947	0.506815	0.462429
128	C	0.033996	0.527747	0.58642
129	C	0.067858	0.55407	0.52137
130	C	0.087932	0.588132	0.583726
131	C	0.120707	0.606894	0.486692
132	C	0.125806	0.587024	0.351475
133	C	0.155819	0.5974	0.226839
134	C	0.161651	0.576993	0.097568
135	C	0.194046	0.596097	0
136	C	0.212571	0.630389	0.053707
137	S	0.190489	0.63963	0.224056
138	S	0.09034	0.545586	0.346643
139	C	0.025363	0.523582	0.794618
140	O	0.046178	0.541877	0.917801
141	H	0.938682	0.453525	0.747975
142	H	0.975475	0.434319	0.224226
143	H	0.919962	0.40142	0.006407
144	H	0.83797	0.439511	0.228604
145	H	0.789773	0.364978	0.764547
146	H	0.014053	0.509883	0.309318
147	H	0.079591	0.599375	0.695936
148	H	0.139577	0.633867	0.51774
149	H	0.143496	0.549548	0.074181
150	H	0.237815	0.650478	0.002324
