data_C60H30N12O12_2023-05-10_21:37:16
#******************************************
#
# CIF file created by Zeo++
# Zeo++ is an open source package to
# analyze microporous materials
#
#*******************************************

_cell_length_a		34.4918   
_cell_length_b		34.7905   
_cell_length_c		7   
_cell_angle_alpha		90   
_cell_angle_beta		90   
_cell_angle_gamma		119.625   

_symmetry_space_group_name_H-M		'P1'
_symmetry_Int_Tables_number		1
_symmetry_cell_setting		Monoclinic

loop_
_symmetry_equiv_pos_as_xyz
'+x,+y,+z'

loop_
_atom_site_label
_atom_site_type_symbol
_atom_site_fract_x
_atom_site_fract_y
_atom_site_fract_z
1	C	0.378246	0.676023	0.999995
2	O	0.417625	0.682904	0.999991
3	C	0.34275	0.630045	0.999998
4	C	0.349751	0.596154	0
5	N	0.393832	0.60408	0
6	C	0.297209	0.621884	3e-06
7	O	0.265304	0.582255	5e-06
8	C	0.286174	0.657244	6e-06
9	C	0.244268	0.648711	5e-06
10	N	0.209729	0.603622	0
11	C	0.323384	0.702855	4e-06
12	O	0.314608	0.733434	7e-06
13	C	0.369653	0.713066	0.999999
14	C	0.402453	0.754676	0.999998
15	N	0.395746	0.791613	0
16	H	0.322572	0.563162	1e-06
17	H	0.235359	0.674038	8e-06
18	H	0.43572	0.760618	0.999997
19	C	0.621754	0.323977	0.999995
20	O	0.582375	0.317096	0.999991
21	C	0.65725	0.369955	0.999998
22	C	0.650249	0.403846	0
23	N	0.606168	0.39592	0
24	C	0.702791	0.378116	3e-06
25	O	0.734696	0.417745	5e-06
26	C	0.713826	0.342756	6e-06
27	C	0.755732	0.351289	5e-06
28	N	0.790271	0.396378	0
29	C	0.676616	0.297145	4e-06
30	O	0.685392	0.266566	7e-06
31	C	0.630347	0.286934	0.999999
32	C	0.597547	0.245324	0.999998
33	N	0.604254	0.208387	0
34	H	0.677428	0.436838	1e-06
35	H	0.764641	0.325962	8e-06
36	H	0.56428	0.239382	0.999997
37	O	0.497972	0.501988	0.641039
38	C	0.499112	0.500871	0.466534
39	C	0.478321	0.521254	0.350672
40	C	0.47903	0.520559	0.158746
41	C	0.458385	0.540798	0.049986
42	C	0.454272	0.544835	0.854272
43	C	0.430652	0.567989	0.823217
44	C	0.420815	0.577627	0
45	N	0.437356	0.56141	0.135649
46	C	0.501052	0.49897	0.064035
47	C	0.521297	0.479122	0.150596
48	C	0.541509	0.459308	0.038903
49	C	0.546217	0.454693	0.844577
50	C	0.569977	0.4314	0.82049
51	C	0.579185	0.422373	0
52	N	0.562156	0.439067	0.130851
53	C	0.521681	0.478745	0.364165
54	O	0.539274	0.461499	0.456279
55	H	0.463156	0.536122	0.436419
56	H	0.466921	0.532439	0.742727
57	H	0.422019	0.576455	0.686991
58	H	0.433996	0.564699	0.276952
59	H	0.500386	0.499622	0.908841
60	H	0.533968	0.466702	0.729914
61	H	0.579151	0.422407	0.686834
62	H	0.564318	0.436947	0.274864
63	O	0.497552	0.995795	0.641039
64	C	0.498666	0.99803	0.466534
65	C	0.47834	0.957265	0.350672
66	C	0.479033	0.958655	0.158746
67	C	0.458851	0.918178	0.049986
68	C	0.454826	0.910109	0.854272
69	C	0.431736	0.863799	0.823217
70	C	0.422125	0.844518	0
71	N	0.438296	0.87695	0.135649
72	C	0.500562	0.001833	0.064035
73	C	0.520355	0.041528	0.150596
74	C	0.540113	0.081157	0.038903
75	C	0.544715	0.090387	0.844577
76	C	0.567943	0.136972	0.82049
77	C	0.576945	0.155025	0
78	N	0.560298	0.121638	0.130851
79	C	0.520731	0.042282	0.364165
80	O	0.537928	0.076774	0.456279
81	H	0.463514	0.927531	0.436419
82	H	0.467186	0.934904	0.742727
83	H	0.423294	0.84687	0.686991
84	H	0.435017	0.870368	0.276952
85	H	0.499912	0.000528	0.908841
86	H	0.53274	0.06637	0.729914
87	H	0.576911	0.154959	0.686834
88	H	0.562412	0.125878	0.274864
89	O	0.003783	0.501531	0.641039
90	C	0.001529	0.500414	0.466534
91	C	0.042646	0.520795	0.350672
92	C	0.041244	0.5201	0.158746
93	C	0.082071	0.540339	0.049986
94	C	0.090209	0.544371	0.854272
95	C	0.136919	0.567526	0.823217
96	C	0.156367	0.57717	0
97	N	0.123655	0.560955	0.135649
98	C	0.997693	0.498512	0.064035
99	C	0.957655	0.478665	0.150596
100	C	0.917685	0.45885	0.038903
101	C	0.908374	0.454235	0.844577
102	C	0.861387	0.430942	0.82049
103	C	0.843178	0.421916	0
104	N	0.876854	0.43861	0.130851
105	C	0.956895	0.478288	0.364165
106	O	0.922105	0.461042	0.456279
107	H	0.072638	0.535662	0.436419
108	H	0.0652	0.531971	0.742727
109	H	0.153995	0.57599	0.686991
110	H	0.130294	0.564248	0.276952
111	H	0.99901	0.499165	0.908841
112	H	0.932599	0.466243	0.729914
113	H	0.843245	0.421949	0.686834
114	H	0.872577	0.43649	0.274864
