data_C114H42N6O18S12_2023-05-12_15:33:16
#******************************************
#
# CIF file created by Zeo++
# Zeo++ is an open source package to
# analyze microporous materials
#
#*******************************************

_cell_length_a		52.1856   
_cell_length_b		52.484   
_cell_length_c		7   
_cell_angle_alpha		90   
_cell_angle_beta		90   
_cell_angle_gamma		119.752   

_symmetry_space_group_name_H-M		'P1'
_symmetry_Int_Tables_number		1
_symmetry_cell_setting		Monoclinic

loop_
_symmetry_equiv_pos_as_xyz
'+x,+y,+z'

loop_
_atom_site_label
_atom_site_type_symbol
_atom_site_fract_x
_atom_site_fract_y
_atom_site_fract_z
1	C	0.363034	0.672877	0.999995
2	O	0.389074	0.677443	0.999991
3	C	0.339495	0.64236	0.999998
4	C	0.344066	0.619867	0
5	N	0.373214	0.625127	0
6	C	0.309381	0.636944	3e-06
7	O	0.288227	0.610641	5e-06
8	C	0.302148	0.660413	6e-06
9	C	0.274436	0.654749	5e-06
10	N	0.251531	0.624823	0
11	C	0.326819	0.690685	4e-06
12	O	0.321071	0.710981	7e-06
13	C	0.357418	0.697462	0.999999
14	C	0.379167	0.725079	0.999998
15	N	0.374797	0.749595	0
16	H	0.326046	0.597969	1e-06
17	H	0.268591	0.671559	8e-06
18	H	0.401165	0.729023	0.999997
19	C	0.636966	0.327123	0.999995
20	O	0.610926	0.322557	0.999991
21	C	0.660505	0.35764	0.999998
22	C	0.655934	0.380133	0
23	N	0.626786	0.374873	0
24	C	0.690619	0.363056	3e-06
25	O	0.711773	0.389359	5e-06
26	C	0.697852	0.339587	6e-06
27	C	0.725564	0.345251	5e-06
28	N	0.748469	0.375177	0
29	C	0.673181	0.309315	4e-06
30	O	0.678929	0.289019	7e-06
31	C	0.642582	0.302538	0.999999
32	C	0.620833	0.274921	0.999998
33	N	0.625203	0.250405	0
34	H	0.673954	0.402031	1e-06
35	H	0.731409	0.328441	8e-06
36	H	0.598835	0.270977	0.999997
37	O	0.434141	0.470671	0.429475
38	C	0.460625	0.487761	0.438779
39	C	0.472694	0.520603	0.446899
40	O	0.459291	0.5303	0.53571
41	C	0.50179	0.539452	0.356042
42	C	0.51013	0.567917	0.289191
43	C	0.490346	0.580178	0.287438
44	C	0.489822	0.600644	0.408124
45	C	0.467315	0.607308	0.357315
46	C	0.451272	0.591963	0.198435
47	C	0.426989	0.593227	0.107583
48	C	0.406238	0.573231	0.98152
49	C	0.385347	0.581531	0.919101
50	C	0.391004	0.60757	0
51	S	0.420525	0.621964	0.147642
52	S	0.464181	0.569726	0.112386
53	C	0.538563	0.585282	0.21387
54	C	0.558198	0.574618	0.204041
55	C	0.549494	0.546301	0.269331
56	C	0.521205	0.527991	0.344418
57	C	0.512053	0.497574	0.40229
58	C	0.532334	0.487142	0.411617
59	C	0.563879	0.508843	0.379028
60	O	0.584098	0.507146	0.453788
61	C	0.570593	0.535397	0.258267
62	O	0.592609	0.547237	0.158165
63	C	0.522987	0.457523	0.455161
64	C	0.54268	0.44517	0.454482
65	C	0.556544	0.440217	0.605541
66	C	0.573763	0.427413	0.545244
67	C	0.572532	0.422639	0.349939
68	C	0.587343	0.409849	0.244739
69	C	0.601586	0.395813	0.321545
70	C	0.61411	0.385674	0.179804
71	C	0.608996	0.39243	0
72	S	0.589674	0.410429	0.998935
73	S	0.550107	0.433858	0.243139
74	C	0.493037	0.43837	0.494149
75	C	0.472787	0.4483	0.488943
76	C	0.482359	0.477614	0.443854
77	H	0.504532	0.610207	0.528891
78	H	0.463106	0.622591	0.436525
79	H	0.405728	0.553254	0.935805
80	H	0.367367	0.568898	0.821105
81	H	0.545469	0.607268	0.160437
82	H	0.580192	0.58838	0.144856
83	H	0.554882	0.445836	0.75217
84	H	0.586659	0.422251	0.642691
85	H	0.603029	0.39273	0.473336
86	H	0.626086	0.374189	0.21007
87	H	0.485283	0.415375	0.527035
88	H	0.449587	0.433125	0.519162
89	O	0.529446	0.96371	0.429475
90	C	0.512169	0.972974	0.438779
91	C	0.47916	0.952265	0.446899
92	O	0.469499	0.929323	0.53571
93	C	0.460105	0.962368	0.356042
94	C	0.431507	0.942318	0.289191
95	C	0.419306	0.910496	0.287438
96	C	0.398776	0.889612	0.408124
97	C	0.392203	0.860658	0.357315
98	C	0.407677	0.860014	0.198435
99	C	0.40653	0.834672	0.107583
100	C	0.426695	0.833986	0.98152
101	C	0.418473	0.805008	0.919101
102	C	0.392322	0.784709	0
103	S	0.377733	0.799666	0.147642
104	S	0.429922	0.894944	0.112386
105	C	0.413945	0.953241	0.21387
106	C	0.424545	0.983327	0.204041
107	C	0.452996	0.002869	0.269331
108	C	0.471506	0.993029	0.344418
109	C	0.502066	0.014217	0.40229
110	C	0.512431	0.044712	0.411617
111	C	0.490503	0.054407	0.379028
112	O	0.492104	0.076149	0.453788
113	C	0.46383	0.034646	0.258267
114	O	0.451841	0.0447	0.158165
115	C	0.542191	0.064912	0.455161
116	C	0.554487	0.096737	0.454482
117	C	0.559386	0.115415	0.605541
118	C	0.572145	0.145234	0.545244
119	C	0.576941	0.148764	0.349939
120	C	0.589698	0.17618	0.244739
121	C	0.603708	0.204272	0.321545
122	C	0.613817	0.226782	0.179804
123	C	0.607065	0.214988	0
124	S	0.589104	0.177914	0.998935
125	S	0.565798	0.115359	0.243139
126	C	0.561557	0.054265	0.494149
127	C	0.551696	0.024299	0.488943
128	C	0.52224	0.004626	0.443854
129	H	0.389109	0.894687	0.528891
130	H	0.376892	0.841277	0.436525
131	H	0.446738	0.853358	0.935805
132	H	0.431236	0.799744	0.821105
133	H	0.391853	0.938214	0.160437
134	H	0.410628	0.991447	0.144856
135	H	0.553757	0.108176	0.75217
136	H	0.57726	0.163161	0.642691
137	H	0.606793	0.208771	0.473336
138	H	0.625279	0.250088	0.21007
139	H	0.584663	0.069454	0.527035
140	H	0.567035	0.016389	0.519162
141	O	0.035955	0.565165	0.429475
142	C	0.026748	0.538811	0.438779
143	C	0.047688	0.526677	0.446899
144	O	0.070752	0.539922	0.53571
145	C	0.037647	0.497725	0.356042
146	C	0.057905	0.48931	0.289191
147	C	0.08989	0.508871	0.287438
148	C	0.110944	0.509289	0.408124
149	C	0.140024	0.531579	0.357315
150	C	0.140593	0.547568	0.198435
151	C	0.166022	0.571646	0.107583
152	C	0.16661	0.592328	0.98152
153	C	0.195722	0.613007	0.919101
154	C	0.216217	0.607266	0
155	S	0.201284	0.577914	0.147642
156	S	0.105439	0.534875	0.112386
157	C	0.047034	0.461022	0.21387
158	C	0.016799	0.441601	0.204041
159	C	0.997051	0.450375	0.269331
160	C	0.006831	0.478525	0.344418
161	C	0.985423	0.487754	0.40229
162	C	0.954777	0.467691	0.411617
163	C	0.94516	0.436295	0.379028
164	O	0.92334	0.41625	0.453788
165	C	0.965118	0.429503	0.258267
166	O	0.955092	0.407608	0.158165
167	C	0.934363	0.477109	0.455161
168	C	0.902375	0.457639	0.454482
169	C	0.883612	0.443912	0.605541
170	C	0.853634	0.426898	0.545244
171	C	0.850069	0.428143	0.349939
172	C	0.822501	0.413517	0.244739
173	C	0.794248	0.39946	0.321545
174	C	0.771615	0.387089	0.179804
175	C	0.783481	0.392127	0
176	S	0.820763	0.411202	0.998935
177	S	0.883637	0.450329	0.243139
178	C	0.944948	0.50691	0.494149
179	C	0.97506	0.526946	0.488943
180	C	0.994943	0.517305	0.443854
181	H	0.1059	0.494651	0.528891
182	H	0.159543	0.535677	0.436525
183	H	0.147075	0.592933	0.935805
184	H	0.200939	0.630903	0.821105
185	H	0.06222	0.454063	0.160437
186	H	0.008722	0.419718	0.144856
187	H	0.890903	0.445533	0.75217
188	H	0.835623	0.414133	0.642691
189	H	0.789719	0.398044	0.473336
190	H	0.748177	0.375268	0.21007
191	H	0.929595	0.514716	0.527035
192	H	0.982919	0.550032	0.519162
