data_C114H42N6O18S12_2023-05-12_22:57:16
#******************************************
#
# CIF file created by Zeo++
# Zeo++ is an open source package to
# analyze microporous materials
#
#*******************************************

_cell_length_a		52.2026   
_cell_length_b		52.501   
_cell_length_c		7   
_cell_angle_alpha		90   
_cell_angle_beta		90   
_cell_angle_gamma		119.752   

_symmetry_space_group_name_H-M		'P1'
_symmetry_Int_Tables_number		1
_symmetry_cell_setting		Monoclinic

loop_
_symmetry_equiv_pos_as_xyz
'+x,+y,+z'

loop_
_atom_site_label
_atom_site_type_symbol
_atom_site_fract_x
_atom_site_fract_y
_atom_site_fract_z
1	C	0.363025	0.672875	0.999995
2	O	0.389055	0.67744	0.999991
3	C	0.339493	0.642368	0.999998
4	C	0.344062	0.619882	0
5	N	0.373201	0.62514	0
6	C	0.309389	0.636953	3e-06
7	O	0.288241	0.61066	5e-06
8	C	0.302158	0.660415	6e-06
9	C	0.274455	0.654753	5e-06
10	N	0.251558	0.624837	0
11	C	0.326821	0.690678	4e-06
12	O	0.321075	0.710966	7e-06
13	C	0.35741	0.697452	0.999999
14	C	0.379152	0.725061	0.999998
15	N	0.374784	0.749568	0
16	H	0.326048	0.597992	1e-06
17	H	0.268612	0.671558	8e-06
18	H	0.401143	0.729003	0.999997
19	C	0.636975	0.327125	0.999995
20	O	0.610945	0.32256	0.999991
21	C	0.660507	0.357632	0.999998
22	C	0.655938	0.380118	0
23	N	0.626799	0.37486	0
24	C	0.690611	0.363047	3e-06
25	O	0.711759	0.38934	5e-06
26	C	0.697842	0.339585	6e-06
27	C	0.725545	0.345247	5e-06
28	N	0.748442	0.375163	0
29	C	0.673179	0.309322	4e-06
30	O	0.678925	0.289034	7e-06
31	C	0.64259	0.302548	0.999999
32	C	0.620848	0.274939	0.999998
33	N	0.625216	0.250432	0
34	H	0.673952	0.402008	1e-06
35	H	0.731388	0.328442	8e-06
36	H	0.598857	0.270997	0.999997
37	O	0.504793	0.471564	0.734769
38	C	0.495971	0.469045	0.570427
39	C	0.502897	0.452072	0.4249
40	O	0.52528	0.450502	0.446369
41	C	0.482901	0.439494	0.257669
42	C	0.48401	0.41817	0.139231
43	C	0.50157	0.404106	0.182635
44	C	0.497332	0.384107	0.324018
45	C	0.519198	0.375348	0.319314
46	C	0.539653	0.38875	0.174542
47	C	0.564679	0.385084	0.127772
48	C	0.58882	0.402959	0.014627
49	C	0.609015	0.392411	0
50	C	0.600436	0.367012	0.099979
51	S	0.567537	0.355774	0.213205
52	S	0.531691	0.411823	0.045334
53	C	0.466753	0.409071	0.972846
54	C	0.449158	0.421015	0.923233
55	C	0.447864	0.441636	0.043143
56	C	0.464024	0.450929	0.2142
57	C	0.461979	0.472686	0.337909
58	C	0.443269	0.48424	0.293722
59	C	0.422459	0.470829	0.131771
60	O	0.399076	0.470746	0.120596
61	C	0.429538	0.454343	0.983486
62	O	0.420199	0.451618	0.82046
63	C	0.442795	0.506238	0.407983
64	C	0.426057	0.520919	0.359583
65	C	0.399896	0.516768	0.435097
66	C	0.390933	0.535841	0.350628
67	C	0.410529	0.55436	0.213968
68	C	0.40783	0.576293	0.103343
69	C	0.387945	0.586123	0.134803
70	C	0.390985	0.607589	0
71	C	0.412728	0.613981	0.868142
72	S	0.429691	0.593784	0.907981
73	S	0.439827	0.548195	0.192038
74	C	0.459854	0.515378	0.574813
75	C	0.477053	0.503079	0.626765
76	C	0.478134	0.482138	0.508551
77	H	0.479617	0.376163	0.427678
78	H	0.519805	0.360013	0.420257
79	H	0.591872	0.422792	0.946342
80	H	0.61168	0.354481	0.112875
81	H	0.467158	0.392658	0.879408
82	H	0.436403	0.414107	0.791291
83	H	0.387416	0.500559	0.543427
84	H	0.370698	0.535574	0.38879
85	H	0.371988	0.578272	0.249913
86	H	0.419569	0.629362	0.75074
87	H	0.459755	0.532192	0.66564
88	H	0.489806	0.510061	0.758705
89	O	0.528197	0.032896	0.734769
90	C	0.530768	0.026652	0.570427
91	C	0.547761	0.05041	0.4249
92	O	0.549224	0.074173	0.446369
93	C	0.560479	0.043093	0.257669
94	C	0.581866	0.065411	0.139231
95	C	0.595888	0.096821	0.182635
96	C	0.615972	0.112516	0.324018
97	C	0.62465	0.14292	0.319314
98	C	0.611103	0.149873	0.174542
99	C	0.614656	0.178342	0.127772
100	C	0.596603	0.1845	0.014627
101	C	0.607084	0.215026	0
102	C	0.632608	0.231789	0.099979
103	S	0.644046	0.210341	0.213205
104	S	0.587995	0.119017	0.045334
105	C	0.59108	0.057348	0.972846
106	C	0.579186	0.028012	0.923233
107	C	0.558505	0.00621	0.043143
108	C	0.549102	0.012992	0.2142
109	C	0.527284	0.989315	0.337909
110	C	0.515787	0.959262	0.293722
111	C	0.529346	0.951966	0.131771
112	O	0.529545	0.928856	0.120596
113	C	0.545848	0.97539	0.983486
114	O	0.54863	0.968839	0.82046
115	C	0.49372	0.936903	0.407983
116	C	0.479076	0.905693	0.359583
117	C	0.483371	0.883877	0.435097
118	C	0.464281	0.856009	0.350628
119	C	0.445605	0.857018	0.213968
120	C	0.423615	0.832518	0.103343
121	C	0.413853	0.803015	0.134803
122	C	0.392303	0.784671	0
123	C	0.385781	0.799876	0.868142
124	S	0.405959	0.836798	0.907981
125	S	0.451643	0.892212	0.192038
126	C	0.484467	0.94473	0.574813
127	C	0.496719	0.974025	0.626765
128	C	0.517722	0.995934	0.508551
129	H	0.62403	0.102851	0.427678
130	H	0.640031	0.15878	0.420257
131	H	0.57669	0.167793	0.946342
132	H	0.645123	0.255411	0.112875
133	H	0.607544	0.07408	0.879408
134	H	0.58618	0.022235	0.791291
135	H	0.499694	0.887627	0.543427
136	H	0.46465	0.836204	0.38879
137	H	0.421809	0.795	0.249913
138	H	0.370317	0.791358	0.75074
139	H	0.467599	0.927901	0.66564
140	H	0.489651	0.979727	0.758705
141	O	0.966552	0.495085	0.734769
142	C	0.972803	0.503847	0.570427
143	C	0.948884	0.497063	0.4249
144	O	0.925038	0.47487	0.446369
145	C	0.956161	0.516958	0.257669
146	C	0.933665	0.515965	0.139231
147	C	0.902084	0.498618	0.182635
148	C	0.886238	0.502922	0.324018
149	C	0.855693	0.481277	0.319314
150	C	0.848785	0.460922	0.174542
151	C	0.820207	0.436119	0.127772
152	C	0.814119	0.412086	0.014627
153	C	0.783443	0.392108	0
154	C	0.766499	0.400744	0.099979
155	S	0.787959	0.433431	0.213205
156	S	0.879856	0.468705	0.045334
157	C	0.941708	0.533126	0.972846
158	C	0.971198	0.550518	0.923233
159	C	0.993173	0.551699	0.043143
160	C	0.986416	0.535624	0.2142
161	C	0.010278	0.537544	0.337909
162	C	0.040485	0.556043	0.293722
163	C	0.047737	0.576751	0.131771
164	O	0.070921	0.599943	0.120596
165	C	0.024155	0.569811	0.983486
166	O	0.030713	0.579088	0.82046
167	C	0.063026	0.556403	0.407983
168	C	0.09441	0.572932	0.359583
169	C	0.116275	0.598901	0.435097
170	C	0.144328	0.607695	0.350628
171	C	0.143408	0.588166	0.213968
172	C	0.168097	0.590733	0.103343
173	C	0.197744	0.610407	0.134803
174	C	0.216255	0.607286	0
175	C	0.201033	0.585688	0.868142
176	S	0.163892	0.568964	0.907981
177	S	0.108072	0.559138	0.192038
178	C	0.055221	0.539438	0.574813
179	C	0.02577	0.522441	0.626765
180	C	0.003685	0.521473	0.508551
181	H	0.895895	0.520531	0.427678
182	H	0.839705	0.480752	0.420257
183	H	0.83098	0.40896	0.946342
184	H	0.742738	0.389654	0.112875
185	H	0.92484	0.532807	0.879408
186	H	0.976959	0.563204	0.791291
187	H	0.112431	0.611359	0.543427
188	H	0.164194	0.627767	0.38879
189	H	0.205745	0.626273	0.249913
190	H	0.209656	0.578826	0.75074
191	H	0.072188	0.539453	0.66564
192	H	0.020085	0.509757	0.758705
