data_C138H54N6O18S18_2023-05-12_16:09:39
#******************************************
#
# CIF file created by Zeo++
# Zeo++ is an open source package to
# analyze microporous materials
#
#*******************************************

_cell_length_a		62.7917   
_cell_length_b		63.0901   
_cell_length_c		7   
_cell_angle_alpha		90   
_cell_angle_beta		90   
_cell_angle_gamma		119.793   

_symmetry_space_group_name_H-M		'P1'
_symmetry_Int_Tables_number		1
_symmetry_cell_setting		Monoclinic

loop_
_symmetry_equiv_pos_as_xyz
'+x,+y,+z'

loop_
_atom_site_label
_atom_site_type_symbol
_atom_site_fract_x
_atom_site_fract_y
_atom_site_fract_z
1	C	0.358022	0.671835	0.999995
2	O	0.379666	0.675635	0.999991
3	C	0.338437	0.646438	0.999998
4	C	0.34222	0.627718	0
5	N	0.366448	0.632096	0
6	C	0.313406	0.64193	3e-06
7	O	0.295806	0.62004	5e-06
8	C	0.307411	0.661462	6e-06
9	C	0.284376	0.656748	5e-06
10	N	0.265319	0.631843	0
11	C	0.327936	0.686656	4e-06
12	O	0.323173	0.703546	7e-06
13	C	0.353371	0.692296	0.999999
14	C	0.371466	0.71528	0.999998
15	N	0.367852	0.735683	0
16	H	0.327229	0.609494	1e-06
17	H	0.27953	0.670739	8e-06
18	H	0.389751	0.718562	0.999997
19	C	0.641978	0.328165	0.999995
20	O	0.620334	0.324365	0.999991
21	C	0.661563	0.353562	0.999998
22	C	0.65778	0.372282	0
23	N	0.633552	0.367904	0
24	C	0.686594	0.35807	3e-06
25	O	0.704194	0.37996	5e-06
26	C	0.692589	0.338538	6e-06
27	C	0.715624	0.343252	5e-06
28	N	0.734681	0.368157	0
29	C	0.672064	0.313344	4e-06
30	O	0.676827	0.296454	7e-06
31	C	0.646629	0.307704	0.999999
32	C	0.628534	0.28472	0.999998
33	N	0.632148	0.264317	0
34	H	0.672771	0.390506	1e-06
35	H	0.72047	0.329261	8e-06
36	H	0.610249	0.281438	0.999997
37	O	0.513869	0.545797	0.689184
38	C	0.501295	0.523579	0.687169
39	C	0.473689	0.511097	0.663889
40	O	0.462396	0.520108	0.736987
41	C	0.46164	0.487305	0.562767
42	C	0.438871	0.478581	0.468965
43	C	0.426422	0.492839	0.447234
44	C	0.405329	0.489538	0.534733
45	C	0.39881	0.507158	0.474159
46	C	0.415001	0.523518	0.341479
47	C	0.414276	0.543847	0.25184
48	C	0.433085	0.56368	0.159231
49	C	0.425852	0.58037	0.088279
50	C	0.401546	0.572968	0.12619
51	C	0.388661	0.585836	0.075474
52	C	0.39894	0.610841	0.051674
53	C	0.381221	0.617484	0
54	C	0.357974	0.597895	0.983836
55	S	0.357563	0.571124	0.032091
56	S	0.38804	0.545942	0.249706
57	S	0.437623	0.516605	0.288637
58	C	0.427699	0.455252	0.386104
59	C	0.438905	0.440991	0.39468
60	C	0.461566	0.450022	0.486074
61	C	0.473576	0.473321	0.569931
62	C	0.498203	0.482967	0.655412
63	C	0.509074	0.468189	0.680357
64	C	0.493565	0.441801	0.638434
65	O	0.495416	0.425964	0.724231
66	C	0.473175	0.434672	0.493671
67	O	0.466655	0.416949	0.390034
68	C	0.533344	0.478007	0.748305
69	C	0.546167	0.464026	0.75987
70	C	0.551205	0.454182	0.91747
71	C	0.564654	0.442198	0.868265
72	C	0.569618	0.443217	0.674734
73	C	0.582938	0.433006	0.579459
74	C	0.60045	0.428568	0.659722
75	C	0.609864	0.418018	0.527708
76	C	0.599361	0.414422	0.348334
77	C	0.604576	0.403732	0.18396
78	C	0.616767	0.390466	0.18524
79	C	0.618779	0.382516	0
80	C	0.608437	0.389689	0.860271
81	S	0.596149	0.406247	0.954182
82	S	0.57827	0.42418	0.344559
83	S	0.558076	0.459133	0.55577
84	C	0.546523	0.502801	0.798353
85	C	0.535981	0.517565	0.77908
86	C	0.512092	0.50764	0.708167
87	H	0.39512	0.475426	0.639442
88	H	0.383011	0.507823	0.528908
89	H	0.451447	0.566424	0.143223
90	H	0.438075	0.596956	0.01174
91	H	0.418272	0.623693	0.072287
92	H	0.341226	0.59781	0.946527
93	H	0.410176	0.448147	0.312263
94	H	0.429988	0.422926	0.32938
95	H	0.545327	0.455167	0.061067
96	H	0.570111	0.432979	0.971335
97	H	0.606499	0.432776	0.806757
98	H	0.623791	0.413367	0.564649
99	H	0.623702	0.386473	0.313886
100	H	0.607376	0.386093	0.708477
101	H	0.565333	0.510857	0.850172
102	H	0.54652	0.536818	0.817764
103	O	0.453768	0.968042	0.689184
104	C	0.476098	0.97768	0.687169
105	C	0.488727	0.96269	0.663889
106	O	0.479739	0.942501	0.736987
107	C	0.512633	0.974417	0.562767
108	C	0.521475	0.96049	0.468965
109	C	0.507231	0.933927	0.447234
110	C	0.510628	0.916264	0.534733
111	C	0.492989	0.892244	0.474159
112	C	0.476518	0.892033	0.341479
113	C	0.456137	0.871067	0.25184
114	C	0.436173	0.869997	0.159231
115	C	0.419468	0.846193	0.088279
116	C	0.426991	0.829424	0.12619
117	C	0.414143	0.803812	0.075474
118	C	0.389028	0.78912	0.051674
119	C	0.382441	0.764906	0
120	C	0.402179	0.761324	0.983836
121	S	0.429023	0.787576	0.032091
122	S	0.454146	0.842923	0.249706
123	S	0.483355	0.921385	0.288637
124	C	0.544913	0.972626	0.386104
125	C	0.559165	0.997957	0.39468
126	C	0.550016	0.011471	0.486074
127	C	0.526605	0.000198	0.569931
128	C	0.516831	0.015051	0.655412
129	C	0.531603	0.040565	0.680357
130	C	0.558126	0.05144	0.638434
131	O	0.573998	0.069049	0.724231
132	C	0.565359	0.038288	0.493671
133	O	0.583156	0.049461	0.390034
134	C	0.521658	0.054893	0.748305
135	C	0.535623	0.081552	0.75987
136	C	0.545472	0.096359	0.91747
137	C	0.557433	0.12165	0.868265
138	C	0.556391	0.125567	0.674734
139	C	0.566573	0.148964	0.579459
140	C	0.570951	0.170777	0.659722
141	C	0.581489	0.190633	0.527708
142	C	0.585139	0.183783	0.348334
143	C	0.595836	0.199607	0.18396
144	C	0.609087	0.224927	0.18524
145	C	0.617049	0.234842	0
146	C	0.6099	0.217427	0.860271
147	S	0.593349	0.188733	0.954182
148	S	0.575442	0.153116	0.344559
149	S	0.540479	0.098252	0.55577
150	C	0.496743	0.043291	0.798353
151	C	0.481984	0.018119	0.77908
152	C	0.492035	0.004276	0.708167
153	H	0.52482	0.920178	0.639442
154	H	0.492387	0.875889	0.528908
155	H	0.433345	0.885503	0.143223
156	H	0.402788	0.841817	0.01174
157	H	0.376061	0.795522	0.072287
158	H	0.402333	0.744774	0.946527
159	H	0.55211	0.962298	0.312263
160	H	0.577316	0.007091	0.32938
161	H	0.54451	0.08954	0.061067
162	H	0.566653	0.136251	0.971335
163	H	0.566706	0.172594	0.806757
164	H	0.586095	0.209097	0.564649
165	H	0.613062	0.235791	0.313886
166	H	0.61351	0.219954	0.708477
167	H	0.488587	0.053951	0.850172
168	H	0.462635	0.009413	0.817764
169	O	0.031982	0.485782	0.689184
170	C	0.022226	0.498363	0.687169
171	C	0.037203	0.525834	0.663889
172	O	0.057484	0.537013	0.736987
173	C	0.025345	0.537899	0.562767
174	C	0.039273	0.56055	0.468965
175	C	0.065966	0.572856	0.447234
176	C	0.083662	0.593819	0.534733
177	C	0.10782	0.60022	0.474159
178	C	0.1081	0.584071	0.341479
179	C	0.129206	0.584707	0.25184
180	C	0.130362	0.565944	0.159231
181	C	0.154299	0.573058	0.088279
182	C	0.171082	0.59723	0.12619
183	C	0.196815	0.609974	0.075474
184	C	0.211651	0.59966	0.051674
185	C	0.235957	0.617232	0
186	C	0.239466	0.640403	0.983836
187	S	0.213033	0.640922	0.032091
188	S	0.157433	0.610756	0.249706
189	S	0.078641	0.561632	0.288637
190	C	0.027007	0.571744	0.386104
191	C	0.001549	0.560673	0.39468
192	C	0.988037	0.538128	0.486074
193	C	0.999438	0.526102	0.569931
194	C	0.984585	0.501603	0.655412
195	C	0.958942	0.490867	0.680357
196	C	0.947927	0.50638	0.638434
197	O	0.930206	0.504608	0.724231
198	C	0.961085	0.526661	0.493671
199	O	0.949808	0.533211	0.390034
200	C	0.944617	0.466721	0.748305
201	C	0.917829	0.454043	0.75987
202	C	0.902941	0.44908	0.91747
203	C	0.877533	0.435773	0.868265
204	C	0.87361	0.430838	0.674734
205	C	0.850108	0.417651	0.579459
206	C	0.828219	0.400277	0.659722
207	C	0.808265	0.39097	0.527708
208	C	0.815119	0.401417	0.348334
209	C	0.799208	0.396282	0.18396
210	C	0.773765	0.384228	0.18524
211	C	0.763791	0.382263	0
212	C	0.781282	0.392505	0.860271
213	S	0.810122	0.404641	0.954182
214	S	0.845908	0.422325	0.344559
215	S	0.901063	0.442236	0.55577
216	C	0.956353	0.453529	0.798353
217	C	0.981654	0.463937	0.77908
218	C	0.995492	0.487706	0.708167
219	H	0.079679	0.604017	0.639442
220	H	0.124221	0.615909	0.528908
221	H	0.114827	0.547694	0.143223
222	H	0.158756	0.560849	0.01174
223	H	0.205286	0.580406	0.072287
224	H	0.25606	0.657037	0.946527
225	H	0.037333	0.589177	0.312263
226	H	0.992315	0.569604	0.32938
227	H	0.909782	0.454914	0.061067
228	H	0.862855	0.430391	0.971335
229	H	0.826414	0.394251	0.806757
230	H	0.789733	0.377158	0.564649
231	H	0.762856	0.377358	0.313886
232	H	0.778733	0.393574	0.708477
233	H	0.945699	0.434813	0.850172
234	H	0.990464	0.45339	0.817764
