data_C84H36N6O12S12_2023-05-30_00:06:36
#******************************************
#
# CIF file created by Zeo++
# Zeo++ is an open source package to
# analyze microporous materials
#
#*******************************************

_cell_length_a		42.4833   
_cell_length_b		42.7818   
_cell_length_c		7   
_cell_angle_alpha		90   
_cell_angle_beta		90   
_cell_angle_gamma		119.695   

_symmetry_space_group_name_H-M		'P1'
_symmetry_Int_Tables_number		1
_symmetry_cell_setting		Monoclinic

loop_
_symmetry_equiv_pos_as_xyz
'+x,+y,+z'

loop_
_atom_site_label
_atom_site_type_symbol
_atom_site_fract_x
_atom_site_fract_y
_atom_site_fract_z
1	C	0.369808	0.674281	0.999995
2	O	0.401788	0.67988	0.999991
3	C	0.340936	0.636865	0.999998
4	C	0.346582	0.609286	0
5	N	0.38238	0.615735	0
6	C	0.303953	0.630223	3e-06
7	O	0.278003	0.597974	5e-06
8	C	0.295034	0.658999	6e-06
9	C	0.261001	0.652055	5e-06
10	N	0.232908	0.615363	0
11	C	0.325298	0.696116	4e-06
12	O	0.318208	0.721	7e-06
13	C	0.362875	0.704425	0.999999
14	C	0.389553	0.738286	0.999998
15	N	0.38415	0.768345	0
16	H	0.324477	0.582437	1e-06
17	H	0.253798	0.672666	8e-06
18	H	0.416569	0.743121	0.999997
19	C	0.630192	0.325719	0.999995
20	O	0.598212	0.32012	0.999991
21	C	0.659064	0.363135	0.999998
22	C	0.653418	0.390714	0
23	N	0.61762	0.384265	0
24	C	0.696047	0.369777	3e-06
25	O	0.721997	0.402026	5e-06
26	C	0.704966	0.341001	6e-06
27	C	0.738999	0.347945	5e-06
28	N	0.767092	0.384637	0
29	C	0.674702	0.303884	4e-06
30	O	0.681792	0.279	7e-06
31	C	0.637125	0.295575	0.999999
32	C	0.610447	0.261714	0.999998
33	N	0.61585	0.231655	0
34	H	0.675523	0.417563	1e-06
35	H	0.746202	0.327334	8e-06
36	H	0.583431	0.256879	0.999997
37	O	0.515733	0.484519	0.981601
38	C	0.510119	0.493533	0.825237
39	C	0.530732	0.493305	0.656744
40	C	0.522015	0.499225	0.481402
41	C	0.542268	0.499068	0.31637
42	C	0.555148	0.525635	0.178616
43	S	0.578114	0.517856	0.00133
44	C	0.571303	0.478969	0.106456
45	C	0.585493	0.454006	0.022425
46	C	0.60494	0.461488	0.85434
47	S	0.616527	0.429377	0.800506
48	C	0.595743	0.405792	0
49	C	0.580155	0.421349	0.107445
50	C	0.551837	0.472061	0.273966
51	C	0.491167	0.504922	0.456158
52	C	0.471396	0.508109	0.597352
53	C	0.441322	0.514021	0.561185
54	C	0.410014	0.499043	0.669119
55	S	0.379207	0.510634	0.588058
56	C	0.407225	0.536095	0.4078
57	C	0.397483	0.557527	0.257964
58	C	0.364996	0.557569	0.259451
59	S	0.362369	0.583269	0.078822
60	C	0.404257	0.594208	0
61	C	0.420438	0.579043	0.105797
62	C	0.439464	0.535617	0.409301
63	C	0.482038	0.505404	0.798387
64	O	0.469403	0.512371	0.938559
65	H	0.552927	0.488277	0.684874
66	H	0.552585	0.549545	0.172266
67	H	0.61313	0.484095	0.758926
68	H	0.56576	0.409902	0.239429
69	H	0.544468	0.448643	0.362273
70	H	0.483645	0.505924	0.308334
71	H	0.403323	0.481768	0.793142
72	H	0.342426	0.543923	0.356744
73	H	0.447216	0.583201	0.075554
74	H	0.460989	0.550278	0.307238
75	O	0.515069	0.030777	0.981601
76	C	0.506054	0.016259	0.825237
77	C	0.506156	0.036893	0.656744
78	C	0.500266	0.022379	0.481402
79	C	0.5003	0.042586	0.31637
80	C	0.473548	0.028933	0.178616
81	S	0.481217	0.0594	0.00133
82	C	0.5203	0.091306	0.106456
83	C	0.545275	0.130164	0.022425
84	C	0.537644	0.14198	0.85434
85	S	0.569811	0.185365	0.800506
86	C	0.593618	0.188231	0
87	C	0.578094	0.157336	0.107445
88	C	0.527355	0.078901	0.273966
89	C	0.494736	0.986178	0.456158
90	C	0.491657	0.963437	0.597352
91	C	0.485906	0.927788	0.561185
92	C	0.501134	0.91168	0.669119
93	S	0.489687	0.869661	0.588058
94	C	0.463953	0.872094	0.4078
95	C	0.442495	0.841148	0.257964
96	C	0.442652	0.808944	0.259451
97	S	0.416868	0.780802	0.078822
98	C	0.405628	0.811398	0
99	C	0.420755	0.84249	0.105797
100	C	0.464236	0.904485	0.409301
101	C	0.494308	0.976662	0.798387
102	O	0.48739	0.957228	0.938559
103	H	0.511068	0.063862	0.684874
104	H	0.449559	0.002632	0.172266
105	H	0.514898	0.12762	0.758926
106	H	0.589675	0.154463	0.239429
107	H	0.55091	0.09488	0.362273
108	H	0.493775	0.977735	0.308334
109	H	0.518519	0.922225	0.793142
110	H	0.456491	0.800163	0.356744
111	H	0.416415	0.864866	0.075554
112	H	0.449385	0.911223	0.307238
113	O	0.968635	0.484147	0.981601
114	C	0.983265	0.48965	0.825237
115	C	0.962549	0.469245	0.656744
116	C	0.977156	0.477838	0.481402
117	C	0.95687	0.457789	0.31637
118	C	0.970741	0.444875	0.178616
119	S	0.940106	0.422186	0.00133
120	C	0.907834	0.429167	0.106456
121	C	0.868669	0.415272	0.022425
122	C	0.856854	0.395974	0.85434
123	S	0.813099	0.3847	0.800506
124	C	0.810077	0.40542	0
125	C	0.841189	0.420757	0.107445
126	C	0.920245	0.44848	0.273966
127	C	0.013535	0.508343	0.456158
128	C	0.036385	0.527897	0.597352
129	C	0.07221	0.557633	0.561185
130	C	0.088289	0.588719	0.669119
131	S	0.130543	0.619147	0.588058
132	C	0.128259	0.591254	0.4078
133	C	0.159459	0.600767	0.257964
134	C	0.191789	0.632929	0.259451
135	S	0.2202	0.635372	0.078822
136	C	0.189553	0.593836	0
137	C	0.158245	0.57791	0.105797
138	C	0.095738	0.559341	0.409301
139	C	0.023091	0.517377	0.798387
140	O	0.042644	0.529843	0.938559
141	H	0.935443	0.447303	0.684874
142	H	0.997292	0.447265	0.172266
143	H	0.871409	0.387727	0.758926
144	H	0.844002	0.435077	0.239429
145	H	0.904059	0.455919	0.362273
146	H	0.022017	0.515783	0.308334
147	H	0.077596	0.59545	0.793142
148	H	0.20052	0.655356	0.356744
149	H	0.135806	0.551375	0.075554
150	H	0.089064	0.537941	0.307238
