data_C108H42N12O18S12_2023-05-12_05:09:29
#******************************************
#
# CIF file created by Zeo++
# Zeo++ is an open source package to
# analyze microporous materials
#
#*******************************************

_cell_length_a		51.4228   
_cell_length_b		51.7212   
_cell_length_c		7   
_cell_angle_alpha		90   
_cell_angle_beta		90   
_cell_angle_gamma		119.748   

_symmetry_space_group_name_H-M		'P1'
_symmetry_Int_Tables_number		1
_symmetry_cell_setting		Monoclinic

loop_
_symmetry_equiv_pos_as_xyz
'+x,+y,+z'

loop_
_atom_site_label
_atom_site_type_symbol
_atom_site_fract_x
_atom_site_fract_y
_atom_site_fract_z
1	C	0.363474	0.672968	0.999995
2	O	0.3899	0.677602	0.999991
3	C	0.339588	0.642003	0.999998
4	C	0.344228	0.619178	0
5	N	0.373808	0.624516	0
6	C	0.309028	0.636506	3e-06
7	O	0.287562	0.609817	5e-06
8	C	0.301685	0.660321	6e-06
9	C	0.273563	0.654574	5e-06
10	N	0.250321	0.624208	0
11	C	0.326721	0.691039	4e-06
12	O	0.320885	0.711633	7e-06
13	C	0.357773	0.697915	0.999999
14	C	0.379843	0.725939	0.999998
15	N	0.375406	0.750815	0
16	H	0.325943	0.596959	1e-06
17	H	0.26763	0.671631	8e-06
18	H	0.402166	0.72994	0.999997
19	C	0.636526	0.327032	0.999995
20	O	0.6101	0.322398	0.999991
21	C	0.660412	0.357997	0.999998
22	C	0.655772	0.380822	0
23	N	0.626192	0.375484	0
24	C	0.690972	0.363494	3e-06
25	O	0.712438	0.390183	5e-06
26	C	0.698315	0.339679	6e-06
27	C	0.726437	0.345426	5e-06
28	N	0.749679	0.375792	0
29	C	0.673279	0.308961	4e-06
30	O	0.679115	0.288367	7e-06
31	C	0.642227	0.302085	0.999999
32	C	0.620157	0.274061	0.999998
33	N	0.624594	0.249185	0
34	H	0.674057	0.403041	1e-06
35	H	0.73237	0.328369	8e-06
36	H	0.597834	0.27006	0.999997
37	O	0.578282	0.588983	0.364337
38	C	0.566761	0.561853	0.371188
39	N	0.583349	0.547792	0.366081
40	C	0.573718	0.518902	0.420169
41	O	0.591952	0.511486	0.468023
42	C	0.540597	0.498521	0.426932
43	C	0.522044	0.511598	0.415831
44	C	0.534043	0.54237	0.391141
45	C	0.515723	0.555225	0.382247
46	C	0.484562	0.537657	0.39787
47	C	0.467146	0.552901	0.380787
48	C	0.460219	0.567413	0.519328
49	C	0.443112	0.579979	0.444737
50	C	0.437534	0.575058	0.250721
51	C	0.42099	0.584514	0.128758
52	C	0.414624	0.578869	0.935516
53	C	0.397751	0.591724	0.860777
54	C	0.391863	0.6067	0
55	S	0.406056	0.605583	0.215615
56	S	0.45359	0.55518	0.16226
57	C	0.471948	0.506727	0.424878
58	C	0.43902	0.486711	0.45097
59	O	0.42156	0.495701	0.48558
60	N	0.42877	0.456628	0.443679
61	C	0.445663	0.443097	0.466351
62	O	0.434437	0.416457	0.499733
63	C	0.478442	0.462728	0.453233
64	C	0.490446	0.493547	0.431014
65	C	0.496758	0.449856	0.460716
66	C	0.527929	0.467464	0.446586
67	C	0.54523	0.451995	0.448136
68	C	0.555826	0.443287	0.601555
69	C	0.571409	0.428233	0.542889
70	C	0.572222	0.425557	0.346323
71	C	0.586172	0.411389	0.242147
72	C	0.596778	0.393596	0.318281
73	C	0.609494	0.38308	0.178033
74	C	0.608137	0.3933	0
75	S	0.592126	0.415001	0.998832
76	S	0.55359	0.441375	0.236241
77	H	0.605815	0.561416	0.368419
78	H	0.525856	0.579215	0.361009
79	H	0.466721	0.568788	0.667775
80	H	0.435251	0.592002	0.532113
81	H	0.421634	0.56601	0.849371
82	H	0.390542	0.58988	0.7136
83	H	0.406568	0.443498	0.467749
84	H	0.486578	0.425755	0.475627
85	H	0.552965	0.447739	0.748976
86	H	0.581732	0.42001	0.642483
87	H	0.595472	0.388088	0.468566
88	H	0.618949	0.368897	0.208092
89	O	0.410019	0.988948	0.364337
90	C	0.437295	0.004515	0.371188
91	N	0.451318	0.034955	0.366081
92	C	0.480351	0.054148	0.420169
93	O	0.487699	0.079609	0.468023
94	C	0.500967	0.041579	0.426932
95	C	0.487941	0.010168	0.415831
96	C	0.457008	0.991453	0.391141
97	C	0.444203	0.960494	0.382247
98	C	0.461987	0.94707	0.39787
99	C	0.446782	0.914632	0.380787
100	C	0.432257	0.893323	0.519328
101	C	0.419737	0.863856	0.444737
102	C	0.424702	0.86322	0.250721
103	C	0.415299	0.837404	0.128758
104	C	0.420994	0.836708	0.935516
105	C	0.408184	0.807185	0.860777
106	C	0.393188	0.786445	0
107	S	0.394236	0.801631	0.215615
108	S	0.444563	0.89892	0.16226
109	C	0.493081	0.965333	0.424878
110	C	0.51333	0.952594	0.45097
111	O	0.504399	0.926333	0.48558
112	N	0.543563	0.972358	0.443679
113	C	0.557052	0.002573	0.466351
114	O	0.583836	0.017945	0.499733
115	C	0.537191	0.01555	0.453233
116	C	0.506211	0.996792	0.431014
117	C	0.550012	0.046521	0.460716
118	C	0.532189	0.059914	0.446586
119	C	0.547621	0.092463	0.448136
120	C	0.556304	0.111636	0.601555
121	C	0.571328	0.142067	0.542889
122	C	0.574009	0.145536	0.346323
123	C	0.588152	0.173466	0.242147
124	C	0.60595	0.201688	0.318281
125	C	0.616436	0.224761	0.178033
126	C	0.606189	0.213247	0
127	S	0.584498	0.175777	0.998832
128	S	0.558233	0.11132	0.236241
129	H	0.437535	0.04368	0.368419
130	H	0.420084	0.946675	0.361009
131	H	0.430845	0.898404	0.667775
132	H	0.407714	0.844098	0.532113
133	H	0.43386	0.856454	0.849371
134	H	0.410069	0.801869	0.7136
135	H	0.556849	0.963404	0.467749
136	H	0.574244	0.060404	0.475627
137	H	0.551852	0.104369	0.748976
138	H	0.579525	0.160486	0.642483
139	H	0.611482	0.205873	0.468566
140	H	0.630617	0.248249	0.208092
141	O	0.011235	0.421608	0.364337
142	C	0.995479	0.43317	0.371188
143	N	0.964869	0.416791	0.366081
144	C	0.945466	0.426489	0.420169
145	O	0.919884	0.408443	0.468023
146	C	0.957971	0.459438	0.426932
147	C	0.98955	0.477772	0.415831
148	C	0.008484	0.465716	0.391141
149	C	0.039608	0.483819	0.382247
150	C	0.052986	0.514811	0.39787
151	C	0.085607	0.532006	0.380787
152	C	0.107059	0.538802	0.519328
153	C	0.136686	0.555704	0.444737
154	C	0.137299	0.56126	0.250721
155	C	0.163247	0.57762	0.128758
156	C	0.163916	0.583961	0.935516
157	C	0.1936	0.600629	0.860777
158	C	0.214484	0.606393	0
159	S	0.199243	0.592323	0.215615
160	S	0.101382	0.545438	0.16226
161	C	0.034506	0.527478	0.424878
162	C	0.047184	0.560234	0.45097
163	O	0.073576	0.577504	0.48558
164	N	0.027202	0.570552	0.443679
165	C	0.99682	0.553868	0.466351
166	O	0.981262	0.565136	0.499733
167	C	0.983901	0.52126	0.453233
168	C	0.002877	0.509199	0.431014
169	C	0.952764	0.503161	0.460716
170	C	0.939417	0.47216	0.446586
171	C	0.906684	0.45508	0.448136
172	C	0.887405	0.444615	0.601555
173	C	0.856798	0.429238	0.542889
174	C	0.853304	0.428445	0.346323
175	C	0.825211	0.414683	0.242147
176	C	0.796807	0.404254	0.318281
177	C	0.773605	0.391698	0.178033
178	C	0.785209	0.392992	0
179	S	0.822911	0.40876	0.998832
180	S	0.887712	0.446843	0.236241
181	H	0.956184	0.394442	0.368419
182	H	0.053595	0.473648	0.361009
183	H	0.101969	0.532346	0.667775
184	H	0.156569	0.563438	0.532113
185	H	0.14404	0.577075	0.849371
186	H	0.198924	0.607789	0.7136
187	H	0.036118	0.592637	0.467749
188	H	0.938713	0.513379	0.475627
189	H	0.894718	0.447431	0.748976
190	H	0.838278	0.419042	0.642483
191	H	0.792581	0.405578	0.468566
192	H	0.74997	0.382393	0.208092
