data_C84H36N6O12S12_2023-05-11_19:31:39
#******************************************
#
# CIF file created by Zeo++
# Zeo++ is an open source package to
# analyze microporous materials
#
#*******************************************

_cell_length_a		36.4156   
_cell_length_b		36.7142   
_cell_length_c		7   
_cell_angle_alpha		90   
_cell_angle_beta		90   
_cell_angle_gamma		119.645   

_symmetry_space_group_name_H-M		'P1'
_symmetry_Int_Tables_number		1
_symmetry_cell_setting		Monoclinic

loop_
_symmetry_equiv_pos_as_xyz
'+x,+y,+z'

loop_
_atom_site_label
_atom_site_type_symbol
_atom_site_fract_x
_atom_site_fract_y
_atom_site_fract_z
1	C	0.375877	0.675535	0.999995
2	O	0.413179	0.682056	0.999991
3	C	0.342238	0.631957	0.999998
4	C	0.348858	0.599836	0
5	N	0.390612	0.607347	0
6	C	0.299101	0.624222	3e-06
7	O	0.268866	0.586662	5e-06
8	C	0.288661	0.657736	6e-06
9	C	0.248966	0.649648	5e-06
10	N	0.216235	0.606914	0
11	C	0.323924	0.700966	4e-06
12	O	0.315623	0.729948	7e-06
13	C	0.367752	0.710643	0.999999
14	C	0.398835	0.750081	0.999998
15	N	0.392496	0.785089	0
16	H	0.323102	0.568566	1e-06
17	H	0.240538	0.673653	8e-06
18	H	0.430346	0.755712	0.999997
19	C	0.624123	0.324465	0.999995
20	O	0.586821	0.317944	0.999991
21	C	0.657762	0.368043	0.999998
22	C	0.651142	0.400164	0
23	N	0.609388	0.392653	0
24	C	0.700899	0.375778	3e-06
25	O	0.731134	0.413338	5e-06
26	C	0.711339	0.342264	6e-06
27	C	0.751034	0.350352	5e-06
28	N	0.783765	0.393086	0
29	C	0.676076	0.299034	4e-06
30	O	0.684377	0.270052	7e-06
31	C	0.632248	0.289357	0.999999
32	C	0.601165	0.249919	0.999998
33	N	0.607504	0.214911	0
34	H	0.676898	0.431434	1e-06
35	H	0.759462	0.326347	8e-06
36	H	0.569654	0.244288	0.999997
37	O	0.501416	0.49861	0.332633
38	C	0.507632	0.500736	0.160316
39	C	0.494822	0.525219	0.038551
40	C	0.505593	0.531494	0.853199
41	C	0.492937	0.555189	0.732466
42	C	0.498362	0.593991	0.780914
43	S	0.48036	0.613956	0.606966
44	C	0.464949	0.57099	0.464869
45	C	0.443615	0.56572	0.263106
46	C	0.431074	0.530891	0.148801
47	S	0.409013	0.534613	0.938314
48	C	0.41616	0.582276	0
49	C	0.434804	0.595755	0.175517
50	C	0.473489	0.541963	0.548607
51	C	0.531112	0.514838	0.771957
52	C	0.542855	0.489846	0.862458
53	C	0.567995	0.474327	0.77187
54	C	0.598697	0.469459	0.865153
55	S	0.623442	0.451164	0.71794
56	C	0.593414	0.449158	0.526851
57	C	0.597497	0.434079	0.320915
58	C	0.626105	0.420997	0.276525
59	S	0.623036	0.4066	0.041432
60	C	0.58384	0.417724	0
61	C	0.572762	0.4321	0.158562
62	C	0.565111	0.462363	0.574738
63	C	0.528399	0.478225	0.065164
64	O	0.532373	0.451742	0.15471
65	H	0.476414	0.537245	0.108264
66	H	0.512256	0.612112	0.909138
67	H	0.433451	0.50316	0.175789
68	H	0.441764	0.625493	0.237796
69	H	0.465994	0.512386	0.48286
70	H	0.54185	0.524658	0.625935
71	H	0.608158	0.475557	0.013621
72	H	0.648841	0.419002	0.368947
73	H	0.548296	0.440666	0.157783
74	H	0.54301	0.463181	0.473816
75	O	0.500946	0.002563	0.332633
76	C	0.498765	0.006596	0.160316
77	C	0.474261	0.969627	0.038551
78	C	0.46788	0.974042	0.853199
79	C	0.444165	0.938007	0.732466
80	C	0.405145	0.904844	0.780914
81	S	0.385217	0.867229	0.606966
82	C	0.428491	0.894657	0.464869
83	C	0.433938	0.878805	0.263106
84	C	0.469018	0.900991	0.148801
85	S	0.465436	0.875491	0.938314
86	C	0.417502	0.835232	0
87	C	0.403827	0.840276	0.175517
88	C	0.457592	0.931918	0.548607
89	C	0.484431	0.015801	0.771957
90	C	0.509455	0.052221	0.862458
91	C	0.524866	0.092476	0.77187
92	C	0.529538	0.127654	0.865153
93	S	0.547741	0.170275	0.71794
94	C	0.549971	0.142589	0.526851
95	C	0.56509	0.161596	0.320915
96	C	0.578028	0.202858	0.276525
97	S	0.592513	0.214119	0.041432
98	C	0.581618	0.164335	0
99	C	0.567254	0.139114	0.158562
100	C	0.536906	0.101504	0.574738
101	C	0.521232	0.049472	0.065164
102	O	0.547809	0.079693	0.15471
103	H	0.462311	0.939494	0.108264
104	H	0.386842	0.900586	0.909138
105	H	0.496859	0.930872	0.175789
106	H	0.373902	0.817629	0.237796
107	H	0.487359	0.953877	0.48286
108	H	0.474489	0.016664	0.625935
109	H	0.523344	0.13095	0.013621
110	H	0.579871	0.227311	0.368947
111	H	0.558823	0.106427	0.157783
112	H	0.536242	0.078849	0.473816
113	O	0.996982	0.498177	0.332633
114	C	0.992946	0.492018	0.160316
115	C	0.03026	0.504504	0.038551
116	C	0.025871	0.493814	0.853199
117	C	0.062242	0.506154	0.732466
118	C	0.095836	0.500515	0.780914
119	S	0.133767	0.518165	0.606966
120	C	0.105904	0.533703	0.464869
121	C	0.121791	0.554826	0.263106
122	C	0.099252	0.567469	0.148801
123	S	0.124895	0.589246	0.938314
124	C	0.165682	0.581842	0
125	C	0.160713	0.56332	0.175517
126	C	0.068263	0.52547	0.548607
127	C	0.983801	0.468711	0.771957
128	C	0.947034	0.457284	0.862458
129	C	0.906483	0.432548	0.77187
130	C	0.871109	0.402238	0.865153
131	S	0.82816	0.377911	0.71794
132	C	0.855959	0.407604	0.526851
133	C	0.836756	0.403676	0.320915
134	C	0.795211	0.375495	0.276525
135	S	0.783795	0.378631	0.041432
136	C	0.833886	0.417291	0
137	C	0.859327	0.428137	0.158562
138	C	0.897327	0.435483	0.574738
139	C	0.949712	0.471654	0.065164
140	O	0.919161	0.467915	0.15471
141	H	0.060618	0.522612	0.108264
142	H	0.100245	0.486653	0.909138
143	H	0.069034	0.565318	0.175789
144	H	0.183678	0.556229	0.237796
145	H	0.04599	0.533088	0.48286
146	H	0.983004	0.458028	0.625935
147	H	0.867842	0.392843	0.013621
148	H	0.770632	0.353038	0.368947
149	H	0.892225	0.452257	0.157783
150	H	0.920092	0.457321	0.473816
