data_C138H54N6O18S18_2023-05-15_11:43:06
#******************************************
#
# CIF file created by Zeo++
# Zeo++ is an open source package to
# analyze microporous materials
#
#*******************************************

_cell_length_a		63.0079   
_cell_length_b		63.3063   
_cell_length_c		7   
_cell_angle_alpha		90   
_cell_angle_beta		90   
_cell_angle_gamma		119.794   

_symmetry_space_group_name_H-M		'P1'
_symmetry_Int_Tables_number		1
_symmetry_cell_setting		Monoclinic

loop_
_symmetry_equiv_pos_as_xyz
'+x,+y,+z'

loop_
_atom_site_label
_atom_site_type_symbol
_atom_site_fract_x
_atom_site_fract_y
_atom_site_fract_z
1	C	0.357937	0.671817	0.999995
2	O	0.379507	0.675605	0.999991
3	C	0.33842	0.646507	0.999998
4	C	0.342189	0.627851	0
5	N	0.366334	0.632213	0
6	C	0.313474	0.642014	3e-06
7	O	0.295934	0.620199	5e-06
8	C	0.3075	0.66148	6e-06
9	C	0.284544	0.656782	5e-06
10	N	0.265552	0.631962	0
11	C	0.327955	0.686588	4e-06
12	O	0.323208	0.703421	7e-06
13	C	0.353303	0.692208	0.999999
14	C	0.371336	0.715114	0.999998
15	N	0.367734	0.735447	0
16	H	0.327249	0.609689	1e-06
17	H	0.279714	0.670725	8e-06
18	H	0.389558	0.718385	0.999997
19	C	0.642063	0.328183	0.999995
20	O	0.620493	0.324395	0.999991
21	C	0.66158	0.353493	0.999998
22	C	0.657811	0.372149	0
23	N	0.633666	0.367787	0
24	C	0.686526	0.357986	3e-06
25	O	0.704066	0.379801	5e-06
26	C	0.6925	0.33852	6e-06
27	C	0.715456	0.343218	5e-06
28	N	0.734448	0.368038	0
29	C	0.672045	0.313412	4e-06
30	O	0.676792	0.296579	7e-06
31	C	0.646697	0.307792	0.999999
32	C	0.628664	0.284886	0.999998
33	N	0.632266	0.264553	0
34	H	0.672751	0.390311	1e-06
35	H	0.720286	0.329275	8e-06
36	H	0.610442	0.281615	0.999997
37	O	0.471319	0.420472	0.39459
38	C	0.476969	0.437005	0.508477
39	C	0.496192	0.442649	0.660351
40	O	0.497277	0.426037	0.739443
41	C	0.511568	0.468526	0.715696
42	C	0.535256	0.477495	0.792132
43	C	0.547642	0.463172	0.803355
44	C	0.552298	0.453077	0.96113
45	C	0.565367	0.44078	0.912543
46	C	0.570448	0.441835	0.71935
47	C	0.583432	0.431343	0.624673
48	C	0.60157	0.427801	0.702498
49	C	0.610452	0.416681	0.571763
50	C	0.598802	0.411623	0.396346
51	C	0.602874	0.400312	0.230862
52	C	0.589235	0.392525	0.063917
53	C	0.598533	0.382096	0.930031
54	C	0.618944	0.382348	0
55	S	0.626988	0.394709	0.220402
56	S	0.577366	0.420849	0.394319
57	S	0.559632	0.458268	0.59998
58	C	0.548279	0.501793	0.853214
59	C	0.538142	0.51687	0.837301
60	C	0.514813	0.507778	0.758616
61	C	0.501126	0.483661	0.694228
62	C	0.477146	0.474955	0.601149
63	C	0.46548	0.489113	0.597562
64	C	0.477127	0.512129	0.708084
65	O	0.465644	0.52089	0.780683
66	C	0.504433	0.524036	0.741814
67	O	0.517111	0.546098	0.755686
68	C	0.443369	0.481313	0.497098
69	C	0.431359	0.495911	0.477987
70	C	0.411161	0.493624	0.572801
71	C	0.404785	0.511226	0.510817
72	C	0.420126	0.526493	0.369455
73	C	0.419099	0.546288	0.274064
74	C	0.436975	0.564673	0.164313
75	C	0.429618	0.581091	0.090916
76	C	0.406194	0.575074	0.145294
77	C	0.392857	0.587545	0.098117
78	C	0.367838	0.578648	0.108403
79	C	0.360976	0.596089	0.051257
80	C	0.381056	0.617652	0
81	S	0.407605	0.617251	0.018434
82	S	0.393649	0.549533	0.286116
83	S	0.442059	0.518868	0.313183
84	C	0.432573	0.458748	0.403358
85	C	0.443533	0.444334	0.407721
86	C	0.465543	0.452444	0.506066
87	H	0.546399	0.454105	0.104497
88	H	0.570472	0.431308	0.015483
89	H	0.60845	0.43306	0.846642
90	H	0.624721	0.41255	0.607537
91	H	0.573109	0.394056	0.03738
92	H	0.590509	0.374923	0.791626
93	H	0.566659	0.509219	0.911557
94	H	0.548545	0.53572	0.884982
95	H	0.401488	0.480228	0.683171
96	H	0.389641	0.512608	0.570164
97	H	0.454758	0.566563	0.136855
98	H	0.441226	0.596535	0.00142
99	H	0.354782	0.560345	0.154212
100	H	0.342373	0.592739	0.048776
101	H	0.415578	0.452413	0.324096
102	H	0.434964	0.426894	0.333587
103	O	0.579605	0.050586	0.39459
104	C	0.563004	0.039733	0.508477
105	C	0.557265	0.053205	0.660351
106	O	0.573917	0.070826	0.739443
107	C	0.531256	0.042707	0.715696
108	C	0.522165	0.057303	0.792132
109	C	0.536475	0.083869	0.803355
110	C	0.546577	0.098547	0.96113
111	C	0.558852	0.123773	0.912543
112	C	0.557774	0.127769	0.71935
113	C	0.56824	0.151114	0.624673
114	C	0.571717	0.172657	0.702498
115	C	0.582829	0.192553	0.571763
116	C	0.587949	0.186018	0.396346
117	C	0.599273	0.201327	0.230862
118	C	0.607138	0.195536	0.063917
119	C	0.617556	0.215156	0.930031
120	C	0.617218	0.235178	0
121	S	0.604791	0.230857	0.220402
122	S	0.578787	0.155539	0.394319
123	S	0.541342	0.100662	0.59998
124	C	0.497749	0.046041	0.853214
125	C	0.482673	0.020958	0.837301
126	C	0.491886	0.006841	0.758616
127	C	0.516123	0.017264	0.694228
128	C	0.524952	0.002116	0.601149
129	C	0.510805	0.976431	0.597562
130	C	0.48768	0.965078	0.708084
131	O	0.478942	0.944947	0.780683
132	C	0.475628	0.980342	0.741814
133	O	0.453455	0.970962	0.755686
134	C	0.518717	0.962236	0.497098
135	C	0.50413	0.93577	0.477987
136	C	0.506507	0.917986	0.572801
137	C	0.488884	0.894124	0.510817
138	C	0.473513	0.894158	0.369455
139	C	0.45367	0.873424	0.274064
140	C	0.435162	0.872871	0.164313
141	C	0.418731	0.849214	0.090916
142	C	0.42486	0.83194	0.145294
143	C	0.412412	0.806275	0.098117
144	C	0.421436	0.790285	0.108403
145	C	0.403977	0.7661	0.051257
146	C	0.382274	0.764571	0
147	S	0.382565	0.791339	0.018434
148	S	0.450521	0.844915	0.286116
149	S	0.481067	0.923535	0.313183
150	C	0.541387	0.973985	0.403358
151	C	0.555794	0.999225	0.407721
152	C	0.547571	0.01301	0.506066
153	H	0.545571	0.091664	0.104497
154	H	0.568329	0.138277	0.015483
155	H	0.566415	0.174253	0.846642
156	H	0.586912	0.210839	0.607537
157	H	0.605669	0.177994	0.03738
158	H	0.624781	0.21433	0.791626
159	H	0.490227	0.056902	0.911557
160	H	0.463729	0.012519	0.884982
161	H	0.519978	0.921719	0.683171
162	H	0.487562	0.877706	0.570164
163	H	0.433193	0.888651	0.136855
164	H	0.403198	0.845364	0.00142
165	H	0.439842	0.795544	0.154212
166	H	0.407413	0.750959	0.048776
167	H	0.547809	0.963413	0.324096
168	H	0.573316	0.008082	0.333587
169	O	0.948697	0.528565	0.39459
170	C	0.959647	0.522884	0.508477
171	C	0.946164	0.503768	0.660351
172	O	0.928426	0.502759	0.739443
173	C	0.956797	0.488389	0.715696
174	C	0.9422	0.464824	0.792132
175	C	0.915504	0.452582	0.803355
176	C	0.900746	0.447999	0.96113
177	C	0.875401	0.435069	0.912543
178	C	0.871399	0.430018	0.71935
179	C	0.847948	0.417165	0.624673
180	C	0.826333	0.399165	0.702498
181	C	0.806339	0.390389	0.571763
182	C	0.81287	0.401982	0.396346
183	C	0.797473	0.397983	0.230862
184	C	0.803247	0.411562	0.063917
185	C	0.783531	0.402371	0.930031
186	C	0.763458	0.382097	0
187	S	0.767842	0.374056	0.220402
188	S	0.843468	0.423234	0.394319
189	S	0.898646	0.440693	0.59998
190	C	0.953593	0.451789	0.853214
191	C	0.978805	0.461795	0.837301
192	C	0.992921	0.485003	0.758616
193	C	0.982371	0.498697	0.694228
194	C	0.997522	0.522552	0.601149
195	C	0.023335	0.534079	0.597562
196	C	0.034814	0.522416	0.708084
197	O	0.055034	0.533785	0.780683
198	C	0.019559	0.495246	0.741814
199	O	0.029055	0.482563	0.755686
200	C	0.037535	0.556074	0.497098
201	C	0.064131	0.567942	0.477987
202	C	0.081953	0.588013	0.572801
203	C	0.105951	0.594272	0.510817
204	C	0.105981	0.578972	0.369455
205	C	0.126852	0.57991	0.274064
206	C	0.127483	0.562079	0.164313
207	C	0.151271	0.569318	0.090916
208	C	0.168566	0.592609	0.145294
209	C	0.194351	0.605803	0.098117
210	C	0.210346	0.63069	0.108403
211	C	0.234667	0.637434	0.051257
212	C	0.23629	0.6174	0
213	S	0.20945	0.591032	0.018434
214	S	0.15545	0.605174	0.286116
215	S	0.076494	0.557219	0.313183
216	C	0.02566	0.56689	0.403358
217	C	0.000294	0.556064	0.407721
218	C	0.986506	0.534169	0.506066
219	H	0.907651	0.453854	0.104497
220	H	0.86082	0.430038	0.015483
221	H	0.824755	0.392309	0.846642
222	H	0.787987	0.376234	0.607537
223	H	0.820842	0.427573	0.03738
224	H	0.78433	0.41037	0.791626
225	H	0.942734	0.433502	0.911557
226	H	0.987345	0.451384	0.884982
227	H	0.078154	0.597675	0.683171
228	H	0.122418	0.609308	0.570164
229	H	0.111669	0.544408	0.136855
230	H	0.155196	0.557724	0.00142
231	H	0.204996	0.643733	0.154212
232	H	0.249834	0.655924	0.048776
233	H	0.036234	0.583796	0.324096
234	H	0.99134	0.564647	0.333587
