data_C60H30N12O12_2023-05-29_01:15:52
#******************************************
#
# CIF file created by Zeo++
# Zeo++ is an open source package to
# analyze microporous materials
#
#*******************************************

_cell_length_a		31.5951   
_cell_length_b		31.8938   
_cell_length_c		7   
_cell_angle_alpha		90   
_cell_angle_beta		90   
_cell_angle_gamma		119.591   

_symmetry_space_group_name_H-M		'P1'
_symmetry_Int_Tables_number		1
_symmetry_cell_setting		Monoclinic

loop_
_symmetry_equiv_pos_as_xyz
'+x,+y,+z'

loop_
_atom_site_label
_atom_site_type_symbol
_atom_site_fract_x
_atom_site_fract_y
_atom_site_fract_z
1	C	0.382356	0.67687	0.999995
2	O	0.425341	0.684372	0.999991
3	C	0.34364	0.626732	0.999998
4	C	0.35131	0.589776	0
5	N	0.399425	0.598418	0
6	C	0.293931	0.617833	3e-06
7	O	0.25913	0.574619	5e-06
8	C	0.281857	0.656392	6e-06
9	C	0.236115	0.647087	5e-06
10	N	0.198444	0.59792	0
11	C	0.322445	0.706129	4e-06
12	O	0.312841	0.739473	7e-06
13	C	0.372948	0.717263	0.999999
14	C	0.408723	0.762637	0.999998
15	N	0.401374	0.802915	0
16	H	0.321664	0.5538	1e-06
17	H	0.226371	0.674705	8e-06
18	H	0.445036	0.769116	0.999997
19	C	0.617644	0.32313	0.999995
20	O	0.574659	0.315628	0.999991
21	C	0.65636	0.373268	0.999998
22	C	0.64869	0.410224	0
23	N	0.600575	0.401582	0
24	C	0.706069	0.382167	3e-06
25	O	0.74087	0.425381	5e-06
26	C	0.718143	0.343608	6e-06
27	C	0.763885	0.352913	5e-06
28	N	0.801556	0.40208	0
29	C	0.677555	0.293871	4e-06
30	O	0.687159	0.260527	7e-06
31	C	0.627052	0.282737	0.999999
32	C	0.591277	0.237363	0.999998
33	N	0.598626	0.197085	0
34	H	0.678336	0.4462	1e-06
35	H	0.773629	0.325295	8e-06
36	H	0.554964	0.230884	0.999997
37	O	0.504173	0.495917	0.845686
38	C	0.502329	0.497724	0.671478
39	C	0.524569	0.475959	0.551455
40	C	0.5233	0.477196	0.359745
41	C	0.546524	0.454469	0.25983
42	C	0.571028	0.430484	0.318646
43	C	0.586426	0.415418	0.155047
44	C	0.571097	0.430427	0
45	N	0.547283	0.453735	0.062475
46	C	0.498992	0.50098	0.268712
47	C	0.477035	0.522473	0.358816
48	C	0.453993	0.545019	0.257228
49	C	0.429598	0.568888	0.318338
50	C	0.413872	0.584279	0.156748
51	C	0.428903	0.569573	0
52	N	0.452839	0.546152	0.059817
53	C	0.477378	0.522146	0.573784
54	O	0.458788	0.540351	0.672807
55	H	0.541598	0.459297	0.632184
56	H	0.577539	0.424104	0.46488
57	H	0.606364	0.395903	0.152644
58	H	0.532791	0.467924	0.972524
59	H	0.499492	0.500479	0.114311
60	H	0.423448	0.574904	0.465711
61	H	0.393932	0.603789	0.157137
62	H	0.467104	0.532197	0.967677
63	O	0.503563	0.007918	0.845686
64	C	0.501761	0.004306	0.671478
65	C	0.52346	0.047835	0.551455
66	C	0.522227	0.045356	0.359745
67	C	0.544884	0.090809	0.25983
68	C	0.568796	0.138773	0.318646
69	C	0.583816	0.168907	0.155047
70	C	0.568852	0.138897	0
71	N	0.545616	0.092286	0.062475
72	C	0.498515	0.997785	0.268712
73	C	0.477087	0.954805	0.358816
74	C	0.45461	0.909712	0.257228
75	C	0.430814	0.861971	0.318338
76	C	0.41547	0.831191	0.156748
77	C	0.430132	0.860606	0
78	N	0.453481	0.907449	0.059817
79	C	0.477413	0.955468	0.573784
80	O	0.459264	0.919073	0.672807
81	H	0.540071	0.08116	0.632184
82	H	0.575156	0.151524	0.46488
83	H	0.603271	0.207931	0.152644
84	H	0.53147	0.063915	0.972524
85	H	0.499015	0.998775	0.114311
86	H	0.424817	0.849937	0.465711
87	H	0.396019	0.792168	0.157137
88	H	0.467393	0.935363	0.967677
89	O	0.991508	0.495418	0.845686
90	C	0.995154	0.497222	0.671478
91	C	0.951215	0.475459	0.551455
92	C	0.953717	0.476701	0.359745
93	C	0.907836	0.453975	0.25983
94	C	0.859419	0.429996	0.318646
95	C	0.829001	0.414928	0.155047
96	C	0.859294	0.429929	0
97	N	0.906345	0.453232	0.062475
98	C	0.001736	0.500487	0.268712
99	C	0.045121	0.521974	0.358816
100	C	0.09064	0.544522	0.257228
101	C	0.138831	0.568394	0.318338
102	C	0.169901	0.583783	0.156748
103	C	0.140209	0.569074	0
104	N	0.092924	0.545651	0.059817
105	C	0.044452	0.521638	0.573784
106	O	0.081191	0.53983	0.672807
107	H	0.917575	0.458796	0.632184
108	H	0.846548	0.423625	0.46488
109	H	0.789609	0.395418	0.152644
110	H	0.934983	0.467413	0.972524
111	H	0.000737	0.499999	0.114311
112	H	0.150979	0.574412	0.465711
113	H	0.209292	0.603296	0.157137
114	H	0.064747	0.531692	0.967677
