data_C72H36N6O12_2023-05-30_13:22:30
#******************************************
#
# CIF file created by Zeo++
# Zeo++ is an open source package to
# analyze microporous materials
#
#*******************************************

_cell_length_a		35.1433   
_cell_length_b		35.4419   
_cell_length_c		7   
_cell_angle_alpha		90   
_cell_angle_beta		90   
_cell_angle_gamma		119.632   

_symmetry_space_group_name_H-M		'P1'
_symmetry_Int_Tables_number		1
_symmetry_cell_setting		Monoclinic

loop_
_symmetry_equiv_pos_as_xyz
'+x,+y,+z'

loop_
_atom_site_label
_atom_site_type_symbol
_atom_site_fract_x
_atom_site_fract_y
_atom_site_fract_z
1	C	0.377415	0.675852	0.999995
2	O	0.416065	0.682606	0.999991
3	C	0.34257	0.630715	0.999998
4	C	0.349437	0.597446	0
5	N	0.392702	0.605226	0
6	C	0.297873	0.622704	3e-06
7	O	0.266553	0.583801	5e-06
8	C	0.287047	0.657417	6e-06
9	C	0.245916	0.64904	5e-06
10	N	0.212012	0.604777	0
11	C	0.323574	0.702192	4e-06
12	O	0.314965	0.732211	7e-06
13	C	0.368986	0.712216	0.999999
14	C	0.401184	0.753064	0.999998
15	N	0.394606	0.789325	0
16	H	0.322758	0.565058	1e-06
17	H	0.237177	0.673903	8e-06
18	H	0.433835	0.758897	0.999997
19	C	0.622585	0.324148	0.999995
20	O	0.583935	0.317394	0.999991
21	C	0.65743	0.369285	0.999998
22	C	0.650563	0.402554	0
23	N	0.607298	0.394774	0
24	C	0.702127	0.377296	3e-06
25	O	0.733447	0.416199	5e-06
26	C	0.712953	0.342583	6e-06
27	C	0.754084	0.35096	5e-06
28	N	0.787988	0.395223	0
29	C	0.676426	0.297808	4e-06
30	O	0.685035	0.267789	7e-06
31	C	0.631014	0.287784	0.999999
32	C	0.598816	0.246936	0.999998
33	N	0.605394	0.210675	0
34	H	0.677242	0.434942	1e-06
35	H	0.762823	0.326097	8e-06
36	H	0.566165	0.241103	0.999997
37	O	0.503833	0.496241	0.805685
38	C	0.502515	0.49797	0.631475
39	C	0.522643	0.47833	0.511592
40	C	0.521206	0.480226	0.320613
41	C	0.541917	0.459642	0.210972
42	C	0.587568	0.480222	0.192806
43	C	0.607008	0.460751	0.087533
44	C	0.580819	0.420743	0
45	C	0.535385	0.400018	0.016543
46	C	0.515937	0.419484	0.121795
47	C	0.499915	0.50133	0.226658
48	C	0.480596	0.520752	0.318308
49	C	0.459557	0.541071	0.208639
50	C	0.482568	0.571764	0.065384
51	C	0.462449	0.59075	0.9612
52	C	0.419181	0.579257	0
53	C	0.395909	0.549073	0.142159
54	C	0.416074	0.530098	0.246096
55	C	0.480228	0.520177	0.531926
56	O	0.462951	0.536616	0.626701
57	H	0.537988	0.462707	0.587606
58	H	0.608324	0.511526	0.260004
59	H	0.64245	0.477005	0.07465
60	H	0.514886	0.368815	0.94838
61	H	0.480441	0.403003	0.133925
62	H	0.500041	0.50053	0.070974
63	H	0.516546	0.581554	0.034252
64	H	0.480832	0.614508	0.851187
65	H	0.362236	0.540204	0.174177
66	H	0.397428	0.506841	0.35776
67	O	0.503292	0.007294	0.805685
68	C	0.501564	0.004275	0.631475
69	C	0.52115	0.043656	0.511592
70	C	0.519256	0.040354	0.320613
71	C	0.539785	0.081247	0.210972
72	C	0.518769	0.105919	0.192806
73	C	0.53819	0.144452	0.087533
74	C	0.578584	0.158291	0
75	C	0.599744	0.133977	0.016543
76	C	0.580328	0.095442	0.121795
77	C	0.498208	0.998372	0.226658
78	C	0.478836	0.960008	0.318308
79	C	0.458575	0.919054	0.208639
80	C	0.427564	0.911321	0.065384
81	C	0.408636	0.872599	0.9612
82	C	0.420503	0.841261	0
83	C	0.451004	0.848231	0.142159
84	C	0.469921	0.886987	0.246096
85	C	0.479416	0.960215	0.531926
86	O	0.463026	0.926829	0.626701
87	H	0.536734	0.074323	0.587606
88	H	0.487161	0.095352	0.260004
89	H	0.521596	0.163332	0.07465
90	H	0.631248	0.144699	0.94838
91	H	0.59715	0.076733	0.133925
92	H	0.49901	0.99929	0.070974
93	H	0.417476	0.935171	0.034252
94	H	0.384629	0.867178	0.851187
95	H	0.460165	0.823768	0.174177
96	H	0.493428	0.891652	0.35776
97	O	0.992195	0.495792	0.805685
98	C	0.995241	0.497082	0.631475
99	C	0.955527	0.477342	0.511592
100	C	0.958859	0.478748	0.320613
101	C	0.917618	0.458438	0.210972
102	C	0.892983	0.413186	0.192806
103	C	0.854122	0.394125	0.087533
104	C	0.839918	0.420294	0
105	C	0.864191	0.465332	0.016543
106	C	0.903055	0.484402	0.121795
107	C	0.001197	0.499625	0.226658
108	C	0.039888	0.518568	0.318308
109	C	0.081188	0.539202	0.208639
110	C	0.089187	0.516242	0.065384
111	C	0.128235	0.535978	0.9612
112	C	0.159635	0.578809	0
113	C	0.152406	0.602023	0.142159
114	C	0.113325	0.582242	0.246096
115	C	0.039675	0.518935	0.531926
116	O	0.073343	0.535882	0.626701
117	H	0.924598	0.462297	0.587606
118	H	0.903834	0.392449	0.260004
119	H	0.835274	0.358991	0.07465
120	H	0.853186	0.485814	0.94838
121	H	0.921729	0.519591	0.133925
122	H	0.000269	0.499507	0.070974
123	H	0.065298	0.482603	0.034252
124	H	0.133859	0.517642	0.851187
125	H	0.176919	0.635355	0.174177
126	H	0.108463	0.600834	0.35776
