data_C60H24N6O12S6_2023-05-12_23:21:13
#******************************************
#
# CIF file created by Zeo++
# Zeo++ is an open source package to
# analyze microporous materials
#
#*******************************************

_cell_length_a		34.1135   
_cell_length_b		34.4122   
_cell_length_c		7   
_cell_angle_alpha		90   
_cell_angle_beta		90   
_cell_angle_gamma		119.621   

_symmetry_space_group_name_H-M		'P1'
_symmetry_Int_Tables_number		1
_symmetry_cell_setting		Monoclinic

loop_
_symmetry_equiv_pos_as_xyz
'+x,+y,+z'

loop_
_atom_site_label
_atom_site_type_symbol
_atom_site_fract_x
_atom_site_fract_y
_atom_site_fract_z
1	C	0.378743	0.676126	0.999995
2	O	0.418559	0.683082	0.999991
3	C	0.342857	0.629644	0.999998
4	C	0.349939	0.595382	0
5	N	0.394508	0.603394	0
6	C	0.296812	0.621393	3e-06
7	O	0.264556	0.58133	5e-06
8	C	0.285651	0.657141	6e-06
9	C	0.243282	0.648514	5e-06
10	N	0.208364	0.602932	0
11	C	0.323271	0.703252	4e-06
12	O	0.314395	0.734165	7e-06
13	C	0.370052	0.713574	0.999999
14	C	0.403212	0.75564	0.999998
15	N	0.396428	0.792981	0
16	H	0.322462	0.562029	1e-06
17	H	0.234272	0.674119	8e-06
18	H	0.436847	0.761646	0.999997
19	C	0.621257	0.323874	0.999995
20	O	0.581441	0.316918	0.999991
21	C	0.657143	0.370356	0.999998
22	C	0.650061	0.404618	0
23	N	0.605492	0.396606	0
24	C	0.703188	0.378607	3e-06
25	O	0.735444	0.41867	5e-06
26	C	0.714349	0.342859	6e-06
27	C	0.756718	0.351486	5e-06
28	N	0.791636	0.397068	0
29	C	0.676729	0.296748	4e-06
30	O	0.685605	0.265835	7e-06
31	C	0.629948	0.286426	0.999999
32	C	0.596788	0.24436	0.999998
33	N	0.603572	0.207019	0
34	H	0.677538	0.437971	1e-06
35	H	0.765728	0.325881	8e-06
36	H	0.563153	0.238354	0.999997
37	O	0.491803	0.508034	0.773322
38	C	0.495574	0.504329	0.601401
39	C	0.476507	0.523019	0.464692
40	C	0.480047	0.519557	0.274972
41	C	0.46057	0.538645	0.14544
42	C	0.460523	0.538688	0.94605
43	C	0.438307	0.560463	0.862404
44	C	0.421793	0.576652	0
45	S	0.432379	0.566279	0.223818
46	C	0.503649	0.496433	0.205544
47	C	0.52282	0.477631	0.311919
48	C	0.545362	0.455544	0.226726
49	C	0.566735	0.434616	0.314403
50	C	0.585569	0.416153	0.185041
51	C	0.578207	0.423348	0
52	S	0.549565	0.451402	0.979886
53	C	0.519762	0.48061	0.524512
54	O	0.535591	0.46507	0.638427
55	H	0.459943	0.539251	0.533217
56	H	0.475836	0.523678	0.859552
57	H	0.434957	0.563745	0.710225
58	H	0.505032	0.495094	0.050993
59	H	0.569215	0.432201	0.467908
60	H	0.603315	0.398773	0.228172
61	O	0.491518	0.983701	0.773322
62	C	0.495213	0.991103	0.601401
63	C	0.476576	0.953725	0.464692
64	C	0.480028	0.960656	0.274972
65	C	0.460993	0.922479	0.14544
66	C	0.460951	0.92239	0.94605
67	C	0.439238	0.878841	0.862404
68	C	0.423095	0.846466	0
69	S	0.433438	0.867214	0.223818
70	C	0.503087	0.006913	0.205544
71	C	0.521836	0.044505	0.311919
72	C	0.54386	0.088685	0.226726
73	C	0.564729	0.130562	0.314403
74	C	0.58314	0.167484	0.185041
75	C	0.575965	0.153073	0
76	S	0.547991	0.096946	0.979886
77	C	0.518865	0.038529	0.524512
78	O	0.534361	0.069582	0.638427
79	H	0.46039	0.921258	0.533217
80	H	0.475918	0.952407	0.859552
81	H	0.435965	0.872274	0.710225
82	H	0.504422	0.009608	0.050993
83	H	0.567137	0.135407	0.467908
84	H	0.60047	0.202257	0.228172
85	O	0.015978	0.507572	0.773322
86	C	0.008512	0.503876	0.601401
87	C	0.046216	0.522563	0.464692
88	C	0.039224	0.519094	0.274972
89	C	0.077735	0.538183	0.14544
90	C	0.077825	0.538229	0.94605
91	C	0.121755	0.560004	0.862404
92	C	0.154412	0.57619	0
93	S	0.133483	0.565814	0.223818
94	C	0.992564	0.495962	0.205544
95	C	0.954643	0.477171	0.311919
96	C	0.910078	0.455078	0.226726
97	C	0.867836	0.43413	0.314403
98	C	0.83059	0.41567	0.185041
99	C	0.845128	0.422886	0
100	S	0.901744	0.450959	0.979886
101	C	0.960672	0.480169	0.524512
102	O	0.929348	0.464655	0.638427
103	H	0.078967	0.538799	0.533217
104	H	0.047545	0.523222	0.859552
105	H	0.128378	0.563287	0.710225
106	H	0.989845	0.494606	0.050993
107	H	0.862948	0.4317	0.467908
108	H	0.795514	0.398277	0.228172
