data_C66H30N12O12_2023-05-11_00:11:52
#******************************************
#
# CIF file created by Zeo++
# Zeo++ is an open source package to
# analyze microporous materials
#
#*******************************************

_cell_length_a		34.9502   
_cell_length_b		35.2488   
_cell_length_c		7   
_cell_angle_alpha		90   
_cell_angle_beta		90   
_cell_angle_gamma		119.63   

_symmetry_space_group_name_H-M		'P1'
_symmetry_Int_Tables_number		1
_symmetry_cell_setting		Monoclinic

loop_
_symmetry_equiv_pos_as_xyz
'+x,+y,+z'

loop_
_atom_site_label
_atom_site_type_symbol
_atom_site_fract_x
_atom_site_fract_y
_atom_site_fract_z
1	C	0.377658	0.675902	0.999995
2	O	0.416521	0.682693	0.999991
3	C	0.342622	0.630519	0.999998
4	C	0.349529	0.597068	0
5	N	0.393032	0.60489	0
6	C	0.297678	0.622464	3e-06
7	O	0.266188	0.583348	5e-06
8	C	0.286791	0.657366	6e-06
9	C	0.245434	0.648944	5e-06
10	N	0.211344	0.604439	0
11	C	0.323518	0.702386	4e-06
12	O	0.31486	0.732569	7e-06
13	C	0.369182	0.712464	0.999999
14	C	0.401555	0.753536	0.999998
15	N	0.39494	0.789994	0
16	H	0.322703	0.564503	1e-06
17	H	0.236645	0.673943	8e-06
18	H	0.434386	0.7594	0.999997
19	C	0.622342	0.324098	0.999995
20	O	0.583479	0.317307	0.999991
21	C	0.657378	0.369481	0.999998
22	C	0.650471	0.402932	0
23	N	0.606968	0.39511	0
24	C	0.702322	0.377536	3e-06
25	O	0.733812	0.416652	5e-06
26	C	0.713209	0.342634	6e-06
27	C	0.754566	0.351056	5e-06
28	N	0.788656	0.395561	0
29	C	0.676482	0.297614	4e-06
30	O	0.68514	0.267431	7e-06
31	C	0.630818	0.287536	0.999999
32	C	0.598445	0.246464	0.999998
33	N	0.60506	0.210006	0
34	H	0.677297	0.435497	1e-06
35	H	0.763355	0.326057	8e-06
36	H	0.565614	0.2406	0.999997
37	O	0.496215	0.503712	0.804898
38	C	0.497634	0.502086	0.63076
39	C	0.476886	0.521334	0.510793
40	C	0.47838	0.519552	0.319716
41	C	0.456928	0.539614	0.210408
42	C	0.481594	0.578679	0.111985
43	N	0.464025	0.59858	0.007513
44	C	0.419659	0.57878	0
45	C	0.392129	0.539806	0.092498
46	C	0.411131	0.519955	0.198993
47	C	0.500378	0.498876	0.225687
48	C	0.520323	0.479862	0.317439
49	C	0.541976	0.459875	0.208903
50	C	0.520203	0.429379	0.064681
51	N	0.538349	0.410165	0.959056
52	C	0.580341	0.42122	0
53	C	0.604912	0.450835	0.141459
54	C	0.585374	0.470348	0.246814
55	C	0.520644	0.480393	0.531021
56	O	0.538468	0.46424	0.625147
57	H	0.461049	0.536579	0.587403
58	H	0.517384	0.595799	0.114292
59	H	0.356608	0.524901	0.082589
60	H	0.39001	0.48929	0.271623
61	H	0.500206	0.499642	0.069905
62	H	0.486148	0.418814	0.028054
63	H	0.638519	0.45873	0.171091
64	H	0.604312	0.493394	0.35913
65	O	0.495839	0.992351	0.804898
66	C	0.497463	0.995367	0.63076
67	C	0.478276	0.955766	0.510793
68	C	0.480056	0.959011	0.319716
69	C	0.460057	0.917906	0.210408
70	C	0.42062	0.903498	0.111985
71	N	0.400753	0.866389	0.007513
72	C	0.420978	0.842214	0
73	C	0.460345	0.853703	0.092498
74	C	0.48015	0.892177	0.198993
75	C	0.500667	0.001263	0.225687
76	C	0.519625	0.03984	0.317439
77	C	0.539547	0.081068	0.208903
78	C	0.570352	0.089829	0.064681
79	N	0.589524	0.126827	0.959056
80	C	0.578104	0.157336	0
81	C	0.548163	0.152213	0.141459
82	C	0.528701	0.113544	0.246814
83	C	0.519089	0.03963	0.531021
84	O	0.535188	0.07327	0.625147
85	H	0.463075	0.92499	0.587403
86	H	0.403151	0.921861	0.114292
87	H	0.475586	0.833407	0.082589
88	H	0.511119	0.90175	0.271623
89	H	0.499899	0.000333	0.069905
90	H	0.581221	0.066673	0.028054
91	H	0.53998	0.177576	0.171091
92	H	0.505404	0.109378	0.35913
93	O	0.007262	0.503261	0.804898
94	C	0.004219	0.501871	0.63076
95	C	0.044154	0.522224	0.510793
96	C	0.040881	0.520761	0.319716
97	C	0.082331	0.541804	0.210408
98	C	0.097102	0.517147	0.111985
99	N	0.134537	0.534354	0.007513
100	C	0.158679	0.578329	0
101	C	0.146842	0.605815	0.092498
102	C	0.108036	0.587191	0.198993
103	C	0.998271	0.499184	0.225687
104	C	0.959368	0.479622	0.317439
105	C	0.917793	0.45838	0.208903
106	C	0.908761	0.480116	0.064681
107	N	0.871442	0.462332	0.959056
108	C	0.840871	0.420768	0
109	C	0.846241	0.396275	0.141459
110	C	0.885241	0.415431	0.246814
111	C	0.959583	0.479301	0.531021
112	O	0.925661	0.461813	0.625147
113	H	0.075192	0.537755	0.587403
114	H	0.078781	0.481664	0.114292
115	H	0.167123	0.641016	0.082589
116	H	0.098186	0.608283	0.271623
117	H	0.999211	0.499348	0.069905
118	H	0.931947	0.513836	0.028054
119	H	0.820817	0.363018	0.171091
120	H	0.8896	0.396551	0.35913
