data_C84H36N6O12S12_2023-05-12_08:12:16
#******************************************
#
# CIF file created by Zeo++
# Zeo++ is an open source package to
# analyze microporous materials
#
#*******************************************

_cell_length_a		43.7469   
_cell_length_b		44.0455   
_cell_length_c		7   
_cell_angle_alpha		90   
_cell_angle_beta		90   
_cell_angle_gamma		119.704   

_symmetry_space_group_name_H-M		'P1'
_symmetry_Int_Tables_number		1
_symmetry_cell_setting		Monoclinic

loop_
_symmetry_equiv_pos_as_xyz
'+x,+y,+z'

loop_
_atom_site_label
_atom_site_type_symbol
_atom_site_fract_x
_atom_site_fract_y
_atom_site_fract_z
1	C	0.368756	0.674063	0.999995
2	O	0.399813	0.679502	0.999991
3	C	0.340712	0.637717	0.999998
4	C	0.346189	0.610927	0
5	N	0.380954	0.617192	0
6	C	0.304795	0.631266	3e-06
7	O	0.27959	0.599939	5e-06
8	C	0.296139	0.659218	6e-06
9	C	0.263088	0.652473	5e-06
10	N	0.2358	0.61683	0
11	C	0.325535	0.695274	4e-06
12	O	0.318654	0.719446	7e-06
13	C	0.362028	0.703345	0.999999
14	C	0.387941	0.736238	0.999998
15	N	0.3827	0.765436	0
16	H	0.324719	0.584847	1e-06
17	H	0.256096	0.672494	8e-06
18	H	0.414177	0.740934	0.999997
19	C	0.631244	0.325937	0.999995
20	O	0.600187	0.320498	0.999991
21	C	0.659288	0.362283	0.999998
22	C	0.653811	0.389073	0
23	N	0.619046	0.382808	0
24	C	0.695205	0.368734	3e-06
25	O	0.72041	0.400061	5e-06
26	C	0.703861	0.340782	6e-06
27	C	0.736912	0.347527	5e-06
28	N	0.7642	0.38317	0
29	C	0.674465	0.304726	4e-06
30	O	0.681346	0.280554	7e-06
31	C	0.637972	0.296655	0.999999
32	C	0.612059	0.263762	0.999998
33	N	0.6173	0.234564	0
34	H	0.675281	0.415153	1e-06
35	H	0.743904	0.327506	8e-06
36	H	0.585823	0.259066	0.999997
37	O	0.500392	0.499614	0.096541
38	C	0.498513	0.501155	0.922862
39	C	0.472119	0.50847	0.835657
40	C	0.467529	0.507045	0.645425
41	C	0.441338	0.514803	0.574069
42	C	0.407014	0.502513	0.634558
43	C	0.389066	0.516556	0.527931
44	C	0.410063	0.539353	0.388212
45	C	0.398224	0.559331	0.245898
46	C	0.365053	0.555801	0.247608
47	S	0.360309	0.580896	0.075506
48	C	0.402196	0.596281	0
49	C	0.419922	0.583076	0.100653
50	S	0.450969	0.543563	0.386654
51	C	0.488177	0.497306	0.522469
52	C	0.514106	0.491733	0.583423
53	C	0.532647	0.482459	0.449493
54	C	0.551276	0.500215	0.288245
55	C	0.565954	0.482258	0.187651
56	C	0.558014	0.451083	0.273669
57	C	0.570484	0.425336	0.196678
58	C	0.562271	0.394228	0.285756
59	S	0.579511	0.371989	0.167843
60	C	0.597804	0.403719	0
61	C	0.591342	0.430838	0.029385
62	S	0.532956	0.443719	0.473393
63	C	0.523172	0.495936	0.790497
64	O	0.549128	0.495886	0.855007
65	H	0.457427	0.515127	0.935686
66	H	0.394969	0.483962	0.750363
67	H	0.362077	0.509895	0.554818
68	H	0.343061	0.53989	0.34008
69	H	0.446941	0.590048	0.071939
70	H	0.481111	0.49402	0.371537
71	H	0.5546	0.52528	0.244376
72	H	0.58157	0.492189	0.059086
73	H	0.54707	0.383143	0.414356
74	H	0.601041	0.45333	0.936176
75	O	0.500019	0.000591	0.096541
76	C	0.498483	0.9972	0.922862
77	C	0.491297	0.96379	0.835657
78	C	0.492755	0.960662	0.645425
79	C	0.485123	0.927013	0.574069
80	C	0.497664	0.905239	0.634558
81	C	0.483674	0.873506	0.527931
82	C	0.460665	0.871638	0.388212
83	C	0.44068	0.840055	0.245898
84	C	0.444421	0.810715	0.247608
85	S	0.419257	0.781071	0.075506
86	C	0.403564	0.807258	0
87	C	0.416715	0.837938	0.100653
88	S	0.456194	0.907961	0.386654
89	C	0.502408	0.99079	0.522469
90	C	0.507848	0.022006	0.583423
91	C	0.517048	0.049586	0.449493
92	C	0.499113	0.050384	0.288245
93	C	0.517052	0.082769	0.187651
94	C	0.548393	0.105896	0.273669
95	C	0.574166	0.143838	0.196678
96	C	0.605441	0.166628	0.285756
97	S	0.627663	0.205807	0.167843
98	C	0.595703	0.192382	0
99	C	0.568518	0.159024	0.029385
100	S	0.555935	0.088401	0.473393
101	C	0.503575	0.026806	0.790497
102	O	0.503471	0.052559	0.855007
103	H	0.484701	0.942623	0.935686
104	H	0.516358	0.911753	0.750363
105	H	0.490521	0.853401	0.554818
106	H	0.460524	0.804754	0.34008
107	H	0.409556	0.857764	0.071939
108	H	0.505749	0.987058	0.371537
109	H	0.473932	0.028759	0.244376
110	H	0.506989	0.088361	0.059086
111	H	0.616659	0.162594	0.414356
112	H	0.545882	0.14627	0.936176
113	O	0.999043	0.499253	0.096541
114	C	0.002457	0.501104	0.922862
115	C	0.036038	0.527199	0.835657
116	C	0.039169	0.531752	0.645425
117	C	0.072992	0.557643	0.574069
118	C	0.094775	0.591706	0.634558
119	C	0.126714	0.609396	0.527931
120	C	0.128726	0.588468	0.388212
121	C	0.160549	0.600073	0.245898
122	C	0.189979	0.632942	0.247608
123	S	0.219887	0.637491	0.075506
124	C	0.193693	0.59592	0
125	C	0.162817	0.578444	0.100653
126	S	0.09229	0.547934	0.386654
127	C	0.008868	0.511363	0.522469
128	C	0.9775	0.485719	0.583423
129	C	0.949758	0.467413	0.449493
130	C	0.949064	0.44886	0.288245
131	C	0.916448	0.434431	0.187651
132	C	0.893046	0.442479	0.273669
133	C	0.854804	0.430284	0.196678
134	C	0.831741	0.438602	0.285756
135	S	0.792279	0.421662	0.167843
136	C	0.805946	0.403358	0
137	C	0.839594	0.409596	0.029385
138	S	0.910563	0.467338	0.473393
139	C	0.972706	0.476716	0.790497
140	O	0.946855	0.451012	0.855007
141	H	0.057325	0.541708	0.935686
142	H	0.088126	0.603744	0.750363
143	H	0.146855	0.636162	0.554818
144	H	0.195868	0.654815	0.34008
145	H	0.142957	0.551646	0.071939
146	H	0.012594	0.51838	0.371537
147	H	0.970922	0.445419	0.244376
148	H	0.910895	0.418908	0.059086
149	H	0.835724	0.453721	0.414356
150	H	0.852531	0.399857	0.936176
