data_C54H24N12O12S6_2023-05-11_00:35:12
#******************************************
#
# CIF file created by Zeo++
# Zeo++ is an open source package to
# analyze microporous materials
#
#*******************************************

_cell_length_a		35.9385   
_cell_length_b		36.2371   
_cell_length_c		7   
_cell_angle_alpha		90   
_cell_angle_beta		90   
_cell_angle_gamma		119.64   

_symmetry_space_group_name_H-M		'P1'
_symmetry_Int_Tables_number		1
_symmetry_cell_setting		Monoclinic

loop_
_symmetry_equiv_pos_as_xyz
'+x,+y,+z'

loop_
_atom_site_label
_atom_site_type_symbol
_atom_site_fract_x
_atom_site_fract_y
_atom_site_fract_z
1	C	0.376441	0.675651	0.999995
2	O	0.414237	0.682258	0.999991
3	C	0.34236	0.631502	0.999998
4	C	0.34907	0.598959	0
5	N	0.391378	0.606569	0
6	C	0.29865	0.623665	3e-06
7	O	0.268017	0.585613	5e-06
8	C	0.288069	0.657619	6e-06
9	C	0.247848	0.649425	5e-06
10	N	0.214686	0.60613	0
11	C	0.323795	0.701416	4e-06
12	O	0.315381	0.730778	7e-06
13	C	0.368205	0.71122	0.999999
14	C	0.399696	0.751175	0.999998
15	N	0.39327	0.786643	0
16	H	0.322975	0.567279	1e-06
17	H	0.239305	0.673745	8e-06
18	H	0.431626	0.75688	0.999997
19	C	0.623559	0.324349	0.999995
20	O	0.585763	0.317742	0.999991
21	C	0.65764	0.368498	0.999998
22	C	0.65093	0.401041	0
23	N	0.608622	0.393431	0
24	C	0.70135	0.376335	3e-06
25	O	0.731983	0.414387	5e-06
26	C	0.711931	0.342381	6e-06
27	C	0.752152	0.350575	5e-06
28	N	0.785314	0.39387	0
29	C	0.676205	0.298584	4e-06
30	O	0.684619	0.269222	7e-06
31	C	0.631795	0.28878	0.999999
32	C	0.600304	0.248825	0.999998
33	N	0.60673	0.213357	0
34	H	0.677025	0.432721	1e-06
35	H	0.760695	0.326255	8e-06
36	H	0.568374	0.24312	0.999997
37	O	0.479152	0.52313	0.671411
38	C	0.488992	0.51191	0.840889
39	N	0.508107	0.488209	0.817793
40	C	0.519275	0.475964	0.981701
41	C	0.540515	0.450459	0.956965
42	C	0.569868	0.447172	0.074096
43	C	0.582732	0.418831	0
44	C	0.563563	0.400829	0.829769
45	S	0.529556	0.418421	0.75834
46	C	0.511	0.488082	0.159119
47	O	0.52084	0.476862	0.328597
48	N	0.491885	0.511783	0.182216
49	C	0.480717	0.524028	0.018308
50	C	0.459479	0.549536	0.043042
51	C	0.430128	0.552824	0.925911
52	C	0.417268	0.581169	0
53	C	0.436439	0.599171	0.170228
54	S	0.470441	0.581575	0.241663
55	H	0.489982	0.509811	0.58317
56	H	0.581584	0.464538	0.206816
57	H	0.567659	0.37835	0.743453
58	H	0.510009	0.49018	0.41684
59	H	0.418411	0.535458	0.793193
60	H	0.432345	0.621653	0.256538
61	O	0.476466	0.956216	0.671411
62	C	0.487667	0.977079	0.840889
63	N	0.511341	0.019498	0.817793
64	C	0.523563	0.042691	0.981701
65	C	0.549034	0.089001	0.956965
66	C	0.552124	0.12127	0.074096
67	C	0.580505	0.162118	0
68	C	0.59873	0.161048	0.829769
69	S	0.581301	0.109978	0.75834
70	C	0.511448	0.022483	0.159119
71	O	0.52265	0.043346	0.328597
72	N	0.487774	0.980064	0.182216
73	C	0.475552	0.956871	0.018308
74	C	0.450079	0.910561	0.043042
75	C	0.446987	0.878291	0.925911
76	C	0.418603	0.837444	0
77	C	0.400377	0.838515	0.170228
78	S	0.41781	0.889585	0.241663
79	H	0.489769	0.980142	0.58317
80	H	0.534592	0.115607	0.206816
81	H	0.621284	0.187412	0.743453
82	H	0.509347	0.019421	0.41684
83	H	0.464519	0.883953	0.793193
84	H	0.37782	0.812151	0.256538
85	O	0.043717	0.519996	0.671411
86	C	0.022676	0.510353	0.840889
87	N	0.979887	0.491635	0.817793
88	C	0.956497	0.480687	0.981701
89	C	0.909785	0.459882	0.956965
90	C	0.877343	0.430899	0.074096
91	C	0.836098	0.418392	0
92	C	0.837042	0.437465	0.829769
93	S	0.888477	0.470943	0.75834
94	C	0.976887	0.488777	0.159119
95	O	0.955845	0.479134	0.328597
96	N	0.019676	0.507495	0.182216
97	C	0.043066	0.518443	0.018308
98	C	0.089777	0.539245	0.043042
99	C	0.12222	0.568227	0.925911
100	C	0.163464	0.58073	0
101	C	0.162519	0.561655	0.170228
102	S	0.111084	0.528181	0.241663
103	H	0.019583	0.509389	0.58317
104	H	0.883159	0.419197	0.206816
105	H	0.810391	0.43358	0.743453
106	H	0.979979	0.489741	0.41684
107	H	0.116405	0.579931	0.793193
108	H	0.18917	0.565538	0.256538
