data_C54H30N18O12_2023-05-10_21:26:06
#******************************************
#
# CIF file created by Zeo++
# Zeo++ is an open source package to
# analyze microporous materials
#
#*******************************************

_cell_length_a		35.4809   
_cell_length_b		35.7796   
_cell_length_c		7   
_cell_angle_alpha		90   
_cell_angle_beta		90   
_cell_angle_gamma		119.635   

_symmetry_space_group_name_H-M		'P1'
_symmetry_Int_Tables_number		1
_symmetry_cell_setting		Monoclinic

loop_
_symmetry_equiv_pos_as_xyz
'+x,+y,+z'

loop_
_atom_site_label
_atom_site_type_symbol
_atom_site_fract_x
_atom_site_fract_y
_atom_site_fract_z
1	C	0.376996	0.675766	0.999995
2	O	0.415279	0.682456	0.999991
3	C	0.34248	0.631053	0.999998
4	C	0.349279	0.598097	0
5	N	0.392132	0.605803	0
6	C	0.298207	0.623117	3e-06
7	O	0.267183	0.58458	5e-06
8	C	0.287486	0.657503	6e-06
9	C	0.246747	0.649205	5e-06
10	N	0.213162	0.605359	0
11	C	0.323669	0.701858	4e-06
12	O	0.315144	0.731595	7e-06
13	C	0.36865	0.711788	0.999999
14	C	0.400544	0.752252	0.999998
15	N	0.394032	0.788171	0
16	H	0.322851	0.566013	1e-06
17	H	0.238092	0.673835	8e-06
18	H	0.432885	0.75803	0.999997
19	C	0.623004	0.324234	0.999995
20	O	0.584721	0.317544	0.999991
21	C	0.65752	0.368947	0.999998
22	C	0.650721	0.401903	0
23	N	0.607868	0.394197	0
24	C	0.701793	0.376883	3e-06
25	O	0.732817	0.41542	5e-06
26	C	0.712514	0.342497	6e-06
27	C	0.753253	0.350795	5e-06
28	N	0.786838	0.394641	0
29	C	0.676331	0.298142	4e-06
30	O	0.684856	0.268405	7e-06
31	C	0.63135	0.288212	0.999999
32	C	0.599456	0.247748	0.999998
33	N	0.605968	0.211829	0
34	H	0.677149	0.433987	1e-06
35	H	0.761908	0.326165	8e-06
36	H	0.567115	0.24197	0.999997
37	O	0.524489	0.475979	0.318002
38	C	0.512493	0.487746	0.154195
39	N	0.490743	0.50908	0.18752
40	C	0.478055	0.521526	0.028172
41	C	0.454456	0.544673	0.065534
42	C	0.442953	0.555956	0.236743
43	C	0.420208	0.578266	0.19515
44	C	0.418358	0.580079	0
45	N	0.438861	0.559969	0.92258
46	C	0.487508	0.512254	0.845809
47	O	0.475512	0.524022	0.682002
48	N	0.509257	0.490921	0.812484
49	C	0.521946	0.478475	0.971832
50	C	0.545544	0.455328	0.934469
51	C	0.557048	0.444045	0.763259
52	C	0.579793	0.421735	0.80485
53	C	0.581642	0.419921	0
54	N	0.561139	0.440031	0.077421
55	H	0.512618	0.487624	0.411646
56	H	0.450337	0.548713	0.377445
57	H	0.406861	0.591356	0.296959
58	H	0.442253	0.556642	0.780923
59	H	0.487383	0.512377	0.588358
60	H	0.549663	0.451288	0.622557
61	H	0.593139	0.408645	0.70304
62	H	0.557747	0.443358	0.219079
63	O	0.523504	0.04782	0.318002
64	C	0.511768	0.024286	0.154195
65	N	0.490493	0.981619	0.18752
66	C	0.47808	0.956727	0.028172
67	C	0.454996	0.910433	0.065534
68	C	0.443744	0.887866	0.236743
69	C	0.421495	0.843247	0.19515
70	C	0.419686	0.83962	0
71	N	0.439742	0.87984	0.92258
72	C	0.487327	0.975271	0.845809
73	O	0.475591	0.951737	0.682002
74	N	0.508602	0.017937	0.812484
75	C	0.521015	0.042829	0.971832
76	C	0.544099	0.089123	0.934469
77	C	0.555351	0.11169	0.763259
78	C	0.5776	0.156309	0.80485
79	C	0.57941	0.159937	0
80	N	0.559354	0.119716	0.077421
81	H	0.511891	0.024531	0.411646
82	H	0.450967	0.902353	0.377445
83	H	0.40844	0.817066	0.296959
84	H	0.44306	0.886494	0.780923
85	H	0.487204	0.975026	0.588358
86	H	0.548127	0.097203	0.622557
87	H	0.590655	0.18249	0.70304
88	H	0.556037	0.113062	0.219079
89	O	0.951334	0.475535	0.318002
90	C	0.975065	0.487302	0.154195
91	N	0.01809	0.508635	0.18752
92	C	0.043191	0.521081	0.028172
93	C	0.089874	0.544228	0.065534
94	C	0.11263	0.555511	0.236743
95	C	0.157624	0.577821	0.19515
96	C	0.161282	0.579635	0
97	N	0.120723	0.559524	0.92258
98	C	0.024492	0.511808	0.845809
99	O	0.048223	0.523575	0.682002
100	N	0.981467	0.490475	0.812484
101	C	0.956366	0.47803	0.971832
102	C	0.909683	0.454883	0.934469
103	C	0.886927	0.443599	0.763259
104	C	0.841933	0.42129	0.80485
105	C	0.838275	0.419476	0
106	N	0.878833	0.439586	0.077421
107	H	0.974818	0.487179	0.411646
108	H	0.098022	0.548268	0.377445
109	H	0.184025	0.590912	0.296959
110	H	0.114013	0.556197	0.780923
111	H	0.024739	0.511931	0.588358
112	H	0.901536	0.450842	0.622557
113	H	0.815532	0.408199	0.70304
114	H	0.885543	0.442914	0.219079
