data_C54H30N18O6S6_2023-05-10_22:56:56
#******************************************
#
# CIF file created by Zeo++
# Zeo++ is an open source package to
# analyze microporous materials
#
#*******************************************

_cell_length_a		35.2574   
_cell_length_b		35.556   
_cell_length_c		7   
_cell_angle_alpha		90   
_cell_angle_beta		90   
_cell_angle_gamma		119.633   

_symmetry_space_group_name_H-M		'P1'
_symmetry_Int_Tables_number		1
_symmetry_cell_setting		Monoclinic

loop_
_symmetry_equiv_pos_as_xyz
'+x,+y,+z'

loop_
_atom_site_label
_atom_site_type_symbol
_atom_site_fract_x
_atom_site_fract_y
_atom_site_fract_z
1	C	0.377272	0.675823	0.999995
2	O	0.415798	0.682555	0.999991
3	C	0.342539	0.63083	0.999998
4	C	0.349384	0.597667	0
5	N	0.392508	0.605422	0
6	C	0.297986	0.622844	3e-06
7	O	0.266767	0.584066	5e-06
8	C	0.287196	0.657446	6e-06
9	C	0.246199	0.649096	5e-06
10	N	0.212403	0.604975	0
11	C	0.323606	0.702079	4e-06
12	O	0.315026	0.732001	7e-06
13	C	0.368872	0.71207	0.999999
14	C	0.400966	0.752788	0.999998
15	N	0.394411	0.788932	0
16	H	0.322789	0.565383	1e-06
17	H	0.237488	0.67388	8e-06
18	H	0.433512	0.758602	0.999997
19	C	0.622728	0.324177	0.999995
20	O	0.584202	0.317445	0.999991
21	C	0.657461	0.36917	0.999998
22	C	0.650616	0.402333	0
23	N	0.607492	0.394578	0
24	C	0.702014	0.377156	3e-06
25	O	0.733233	0.415934	5e-06
26	C	0.712804	0.342554	6e-06
27	C	0.753801	0.350904	5e-06
28	N	0.787597	0.395025	0
29	C	0.676394	0.297921	4e-06
30	O	0.684974	0.267999	7e-06
31	C	0.631128	0.28793	0.999999
32	C	0.599034	0.247212	0.999998
33	N	0.605589	0.211068	0
34	H	0.677211	0.434617	1e-06
35	H	0.762512	0.32612	8e-06
36	H	0.566488	0.241398	0.999997
37	S	0.486026	0.467542	0.424001
38	C	0.490121	0.480181	0.176744
39	N	0.470623	0.503593	0.128377
40	C	0.473472	0.516234	0.942725
41	C	0.449888	0.539994	0.910658
42	C	0.430614	0.546932	0.751661
43	C	0.41176	0.572467	0.807661
44	C	0.418902	0.579537	0
45	N	0.4409	0.559386	0.062067
46	C	0.497245	0.507244	0.808055
47	S	0.507262	0.525778	0.567924
48	N	0.516573	0.483663	0.856217
49	C	0.512085	0.46939	0.039895
50	C	0.533435	0.443407	0.069275
51	C	0.527172	0.411053	0.197542
52	C	0.557733	0.397169	0.15563
53	C	0.581098	0.420463	0
54	N	0.565957	0.447439	0.946185
55	H	0.526619	0.473894	0.44276
56	H	0.429381	0.534731	0.60878
57	H	0.39445	0.583661	0.717255
58	H	0.449276	0.557933	0.199056
59	H	0.512564	0.565105	0.604392
60	H	0.502911	0.397879	0.309743
61	H	0.561501	0.372497	0.22974
62	H	0.576184	0.467407	0.831581
63	S	0.532261	0.018189	0.424001
64	C	0.519531	0.009689	0.176744
65	N	0.496151	0.967186	0.128377
66	C	0.483429	0.957453	0.942725
67	C	0.459729	0.910569	0.910658
68	C	0.4529	0.88464	0.751661
69	C	0.427382	0.840665	0.807661
70	C	0.420225	0.840703	0
71	N	0.440311	0.882439	0.062067
72	C	0.492286	0.989864	0.808055
73	S	0.473591	0.981364	0.567924
74	N	0.515838	0.032367	0.856217
75	C	0.530212	0.0421	0.039895
76	C	0.556162	0.088985	0.069275
77	C	0.588717	0.114914	0.197542
78	C	0.602442	0.158889	0.15563
79	C	0.578865	0.158851	0
80	N	0.551871	0.117114	0.946185
81	H	0.52558	0.051989	0.44276
82	H	0.465169	0.895533	0.60878
83	H	0.416262	0.812452	0.717255
84	H	0.441709	0.892157	0.199056
85	H	0.434036	0.947564	0.604392
86	H	0.602132	0.104021	0.309743
87	H	0.627204	0.187101	0.22974
88	H	0.531733	0.107397	0.831581
89	S	0.981035	0.513598	0.424001
90	C	0.98967	0.509459	0.176744
91	N	0.032548	0.52855	0.128377
92	C	0.042421	0.525642	0.942725
93	C	0.089704	0.548767	0.910658
94	C	0.115808	0.567758	0.751661
95	C	0.16018	0.586197	0.807661
96	C	0.160195	0.57909	0
97	N	0.118111	0.557504	0.062067
98	C	0.00979	0.502221	0.808055
99	S	0.018469	0.492188	0.567924
100	N	0.966911	0.483299	0.856217
101	C	0.957026	0.487839	0.039895
102	C	0.909726	0.466937	0.069275
103	C	0.883433	0.473362	0.197542
104	C	0.839147	0.443272	0.15563
105	C	0.839359	0.420016	0
106	N	0.881494	0.434776	0.946185
107	H	0.947123	0.473446	0.44276
108	H	0.104772	0.569066	0.60878
109	H	0.18861	0.603216	0.717255
110	H	0.108337	0.54924	0.199056
111	H	0.052722	0.486661	0.604392
112	H	0.894279	0.497429	0.309743
113	H	0.810618	0.439731	0.22974
114	H	0.891406	0.424526	0.831581
