data_C42H24N12O6S6_2023-05-10_22:59:58
#******************************************
#
# CIF file created by Zeo++
# Zeo++ is an open source package to
# analyze microporous materials
#
#*******************************************

_cell_length_a		30.8863   
_cell_length_b		31.185   
_cell_length_c		7   
_cell_angle_alpha		90   
_cell_angle_beta		90   
_cell_angle_gamma		119.582   

_symmetry_space_group_name_H-M		'P1'
_symmetry_Int_Tables_number		1
_symmetry_cell_setting		Monoclinic

loop_
_symmetry_equiv_pos_as_xyz
'+x,+y,+z'

loop_
_atom_site_label
_atom_site_type_symbol
_atom_site_fract_x
_atom_site_fract_y
_atom_site_fract_z
1	C	0.383479	0.677101	0.999995
2	O	0.427449	0.684773	0.999991
3	C	0.343885	0.625828	0.999998
4	C	0.351737	0.588036	0
5	N	0.400955	0.596874	0
6	C	0.293036	0.616728	3e-06
7	O	0.257445	0.572536	5e-06
8	C	0.280677	0.656159	6e-06
9	C	0.233888	0.646644	5e-06
10	N	0.195362	0.596364	0
11	C	0.322187	0.707022	4e-06
12	O	0.312357	0.741121	7e-06
13	C	0.373848	0.718408	0.999999
14	C	0.410435	0.764809	0.999998
15	N	0.402909	0.805998	0
16	H	0.321418	0.551245	1e-06
17	H	0.223915	0.674887	8e-06
18	H	0.44758	0.771435	0.999997
19	C	0.616521	0.322899	0.999995
20	O	0.572551	0.315227	0.999991
21	C	0.656115	0.374172	0.999998
22	C	0.648263	0.411964	0
23	N	0.599045	0.403126	0
24	C	0.706964	0.383272	3e-06
25	O	0.742555	0.427464	5e-06
26	C	0.719323	0.343841	6e-06
27	C	0.766112	0.353356	5e-06
28	N	0.804638	0.403636	0
29	C	0.677813	0.292978	4e-06
30	O	0.687643	0.258879	7e-06
31	C	0.626152	0.281592	0.999999
32	C	0.589565	0.235191	0.999998
33	N	0.597091	0.194002	0
34	H	0.678582	0.448755	1e-06
35	H	0.776085	0.325113	8e-06
36	H	0.55242	0.228565	0.999997
37	S	0.479208	0.514207	0.527467
38	C	0.497193	0.514645	0.286108
39	N	0.529123	0.496888	0.263119
40	C	0.544071	0.495507	0.081925
41	C	0.578893	0.476475	0.070526
42	C	0.568885	0.432625	0
43	C	0.528396	0.512669	0.92637
44	S	0.549321	0.515322	0.687674
45	N	0.496814	0.53073	0.950264
46	C	0.480885	0.531489	0.130936
47	C	0.446319	0.55109	0.148492
48	C	0.431115	0.567375	0
49	H	0.505942	0.494188	0.593774
50	H	0.615068	0.500381	0.134176
51	H	0.596916	0.421273	0.002161
52	H	0.53791	0.46795	0.678595
53	H	0.432714	0.552164	0.290312
54	H	0.443081	0.567466	0.854183
55	S	0.48537	0.965151	0.527467
56	C	0.484779	0.982456	0.286108
57	N	0.502365	0.031556	0.263119
58	C	0.503628	0.047668	0.081925
59	C	0.522472	0.100885	0.070526
60	C	0.566645	0.134496	0
61	C	0.486504	0.01519	0.92637
62	S	0.483661	0.033198	0.687674
63	N	0.468609	0.966131	0.950264
64	C	0.46798	0.949669	0.130936
65	C	0.448562	0.89614	0.148492
66	C	0.432315	0.864995	0
67	H	0.505274	0.01137	0.593774
68	H	0.498132	0.112859	0.134176
69	H	0.577823	0.173399	0.002161
70	H	0.531387	0.068917	0.678595
71	H	0.447596	0.881655	0.290312
72	H	0.432123	0.876707	0.854183
73	S	0.034648	0.519878	0.527467
74	C	0.017254	0.502135	0.286108
75	N	0.967738	0.470792	0.263119
76	C	0.951527	0.456061	0.081925
77	C	0.897862	0.421876	0.070526
78	C	0.863696	0.432115	0
79	C	0.984326	0.471377	0.92637
80	S	0.966244	0.450716	0.687674
81	N	0.033803	0.502374	0.950264
82	C	0.050361	0.518079	0.130936
83	C	0.104345	0.552006	0.148492
84	C	0.135796	0.566865	0
85	H	0.98801	0.493678	0.593774
86	H	0.886027	0.385996	0.134176
87	H	0.824487	0.404564	0.002161
88	H	0.929929	0.462369	0.678595
89	H	0.118917	0.565416	0.290312
90	H	0.124022	0.555063	0.854183
