data_C42H24N12O6S6_2023-05-19_13:20:52
#******************************************
#
# CIF file created by Zeo++
# Zeo++ is an open source package to
# analyze microporous materials
#
#*******************************************

_cell_length_a		30.7663   
_cell_length_b		31.065   
_cell_length_c		7   
_cell_angle_alpha		90   
_cell_angle_beta		90   
_cell_angle_gamma		119.58   

_symmetry_space_group_name_H-M		'P1'
_symmetry_Int_Tables_number		1
_symmetry_cell_setting		Monoclinic

loop_
_symmetry_equiv_pos_as_xyz
'+x,+y,+z'

loop_
_atom_site_label
_atom_site_type_symbol
_atom_site_fract_x
_atom_site_fract_y
_atom_site_fract_z
1	C	0.383675	0.677141	0.999995
2	O	0.427816	0.684843	0.999991
3	C	0.343927	0.625671	0.999998
4	C	0.351811	0.587733	0
5	N	0.401221	0.596605	0
6	C	0.29288	0.616536	3e-06
7	O	0.257152	0.572174	5e-06
8	C	0.280472	0.656119	6e-06
9	C	0.233501	0.646567	5e-06
10	N	0.194826	0.596093	0
11	C	0.322143	0.707177	4e-06
12	O	0.312272	0.741407	7e-06
13	C	0.374004	0.718607	0.999999
14	C	0.410733	0.765186	0.999998
15	N	0.403176	0.806535	0
16	H	0.321375	0.550801	1e-06
17	H	0.223488	0.674919	8e-06
18	H	0.448022	0.771838	0.999997
19	C	0.616325	0.322859	0.999995
20	O	0.572184	0.315157	0.999991
21	C	0.656073	0.374329	0.999998
22	C	0.648189	0.412267	0
23	N	0.598779	0.403395	0
24	C	0.70712	0.383464	3e-06
25	O	0.742848	0.427826	5e-06
26	C	0.719528	0.343881	6e-06
27	C	0.766499	0.353433	5e-06
28	N	0.805174	0.403907	0
29	C	0.677857	0.292823	4e-06
30	O	0.687728	0.258593	7e-06
31	C	0.625996	0.281393	0.999999
32	C	0.589267	0.234814	0.999998
33	N	0.596824	0.193465	0
34	H	0.678625	0.449199	1e-06
35	H	0.776512	0.325081	8e-06
36	H	0.551978	0.228162	0.999997
37	S	0.525664	0.563211	0.749331
38	C	0.512172	0.529871	0.968069
39	N	0.530115	0.497855	0.978024
40	C	0.522599	0.471988	0.143161
41	C	0.542156	0.437182	0.144067
42	C	0.568501	0.433007	0
43	C	0.497799	0.478943	0.298228
44	S	0.48725	0.448193	0.522053
45	N	0.47969	0.510849	0.288194
46	C	0.48614	0.535544	0.121332
47	C	0.465025	0.568731	0.126039
48	C	0.431499	0.566993	0
49	H	0.534751	0.60642	0.825836
50	H	0.534255	0.413592	0.268293
51	H	0.577707	0.455049	0.870631
52	H	0.535585	0.465198	0.562579
53	H	0.476466	0.593815	0.247271
54	H	0.417303	0.541101	0.88172
55	S	0.435705	0.962377	0.749331
56	C	0.469341	0.98213	0.968069
57	N	0.501382	0.031572	0.978024
58	C	0.527453	0.049808	0.143161
59	C	0.562285	0.103609	0.144067
60	C	0.566261	0.133731	0
61	C	0.520669	0.018453	0.298228
62	S	0.551677	0.038541	0.522053
63	N	0.488741	0.968956	0.288194
64	C	0.463856	0.95083	0.121332
65	C	0.430666	0.897099	0.126039
66	C	0.432695	0.865758	0
67	H	0.392182	0.928494	0.825836
68	H	0.586072	0.119208	0.268293
69	H	0.54402	0.120954	0.870631
70	H	0.534172	0.06935	0.562579
71	H	0.405348	0.88351	0.247271
72	H	0.458849	0.877432	0.88172
73	S	0.037855	0.473645	0.749331
74	C	0.017711	0.487232	0.968069
75	N	0.967727	0.469806	0.978024
76	C	0.949172	0.477436	0.143161
77	C	0.894783	0.458442	0.144067
78	C	0.864461	0.432495	0
79	C	0.980755	0.501837	0.298228
80	S	0.960296	0.512499	0.522053
81	N	0.030793	0.519428	0.288194
82	C	0.049228	0.512858	0.121332
83	C	0.103533	0.533403	0.126039
84	C	0.135029	0.566481	0
85	H	0.07229	0.464319	0.825836
86	H	0.878897	0.466433	0.268293
87	H	0.877496	0.42323	0.870631
88	H	0.929466	0.464686	0.562579
89	H	0.11741	0.521908	0.247271
90	H	0.123071	0.5807	0.88172
